<?xml version="1.0" encoding="UTF-8"?>

<!-- generated on 2022-06-27 17:54:43 by Eclipse SUMO netedit Version 1.13.0
<configuration xmlns:xsi="http://www.w3.org/2001/XMLSchema-instance" xsi:noNamespaceSchemaLocation="http://sumo.dlr.de/xsd/netconvertConfiguration.xsd">

    <input>
        <sumo-net-file value="/home/eclipse-mosaic/scenarios/Norte86/sumo/norte86.net.xml"/>
    </input>

    <output>
        <output-file value="/home/eclipse-mosaic/scenarios/Norte86/sumo/norte86.net.xml"/>
        <output.street-names value="true"/>
    </output>

    <processing>
        <geometry.min-radius.fix.railways value="false"/>
        <geometry.max-grade.fix value="false"/>
        <offset.disable-normalization value="true"/>
        <lefthand value="false"/>
    </processing>

    <junctions>
        <no-turnarounds value="true"/>
        <junctions.corner-detail value="5"/>
        <junctions.limit-turn-speed value="5.5"/>
        <rectangular-lane-cut value="false"/>
    </junctions>

    <pedestrian>
        <walkingareas value="false"/>
    </pedestrian>

    <report>
        <aggregate-warnings value="5"/>
    </report>

</configuration>
-->

<net version="1.9" junctionCornerDetail="5" limitTurnSpeed="5.50" xmlns:xsi="http://www.w3.org/2001/XMLSchema-instance" xsi:noNamespaceSchemaLocation="http://sumo.dlr.de/xsd/net_file.xsd">

    <location netOffset="-558286.30,-4587723.73" convBoundary="0.00,0.00,1376.09,968.54" origBoundary="-8.302349,41.438909,-8.285768,41.447874" projParameter="+proj=utm +zone=29 +ellps=WGS84 +datum=WGS84 +units=m +no_defs"/>

    <type id="highway.bridleway" priority="1" numLanes="1" speed="2.78" allow="pedestrian" oneway="1" width="2.00"/>
    <type id="highway.bus_guideway" priority="1" numLanes="1" speed="27.78" allow="bus" oneway="1"/>
    <type id="highway.cycleway" priority="1" numLanes="1" speed="8.33" allow="bicycle" oneway="0" width="1.00"/>
    <type id="highway.footway" priority="1" numLanes="1" speed="2.78" allow="pedestrian" oneway="1" width="2.00"/>
    <type id="highway.ford" priority="1" numLanes="1" speed="2.78" allow="army" oneway="0"/>
    <type id="highway.living_street" priority="2" numLanes="1" speed="2.78" disallow="tram rail_urban rail rail_electric rail_fast ship" oneway="0"/>
    <type id="highway.motorway" priority="14" numLanes="2" speed="39.44" allow="private emergency authority army vip passenger hov taxi bus coach delivery truck trailer motorcycle evehicle custom1 custom2" oneway="1"/>
    <type id="highway.motorway_link" priority="9" numLanes="1" speed="22.22" allow="private emergency authority army vip passenger hov taxi bus coach delivery truck trailer motorcycle evehicle custom1 custom2" oneway="1"/>
    <type id="highway.path" priority="1" numLanes="1" speed="2.78" allow="pedestrian bicycle" oneway="0" width="2.00"/>
    <type id="highway.pedestrian" priority="1" numLanes="1" speed="2.78" allow="pedestrian" oneway="1" width="2.00"/>
    <type id="highway.primary" priority="12" numLanes="2" speed="27.78" disallow="tram rail_urban rail rail_electric rail_fast ship" oneway="0"/>
    <type id="highway.primary_link" priority="7" numLanes="1" speed="22.22" disallow="tram rail_urban rail rail_electric rail_fast ship" oneway="0"/>
    <type id="highway.raceway" priority="15" numLanes="2" speed="83.33" allow="vip" oneway="0"/>
    <type id="highway.residential" priority="3" numLanes="1" speed="13.89" disallow="tram rail_urban rail rail_electric rail_fast ship" oneway="0"/>
    <type id="highway.secondary" priority="11" numLanes="1" speed="27.78" disallow="tram rail_urban rail rail_electric rail_fast ship" oneway="0"/>
    <type id="highway.secondary_link" priority="6" numLanes="1" speed="22.22" disallow="tram rail_urban rail rail_electric rail_fast ship" oneway="0"/>
    <type id="highway.service" priority="1" numLanes="1" speed="5.56" allow="pedestrian delivery bicycle" oneway="0"/>
    <type id="highway.stairs" priority="1" numLanes="1" speed="1.39" allow="pedestrian" oneway="1" width="2.00"/>
    <type id="highway.step" priority="1" numLanes="1" speed="1.39" allow="pedestrian" oneway="1" width="2.00"/>
    <type id="highway.steps" priority="1" numLanes="1" speed="1.39" allow="pedestrian" oneway="1" width="2.00"/>
    <type id="highway.tertiary" priority="10" numLanes="1" speed="22.22" disallow="tram rail_urban rail rail_electric rail_fast ship" oneway="0"/>
    <type id="highway.tertiary_link" priority="5" numLanes="1" speed="22.22" disallow="tram rail_urban rail rail_electric rail_fast ship" oneway="0"/>
    <type id="highway.track" priority="1" numLanes="1" speed="5.56" allow="pedestrian motorcycle moped bicycle" oneway="0"/>
    <type id="highway.trunk" priority="13" numLanes="2" speed="27.78" disallow="pedestrian bicycle tram rail_urban rail rail_electric rail_fast ship" oneway="0"/>
    <type id="highway.trunk_link" priority="8" numLanes="1" speed="22.22" disallow="pedestrian bicycle tram rail_urban rail rail_electric rail_fast ship" oneway="0"/>
    <type id="highway.unclassified" priority="4" numLanes="1" speed="13.89" disallow="tram rail_urban rail rail_electric rail_fast ship" oneway="0"/>
    <type id="highway.unsurfaced" priority="1" numLanes="1" speed="8.33" disallow="tram rail_urban rail rail_electric rail_fast ship" oneway="0"/>
    <type id="railway.highspeed" priority="21" numLanes="1" speed="69.44" allow="rail_fast" oneway="1"/>
    <type id="railway.light_rail" priority="19" numLanes="1" speed="27.78" allow="rail_urban" oneway="1"/>
    <type id="railway.preserved" priority="16" numLanes="1" speed="27.78" allow="rail" oneway="1"/>
    <type id="railway.rail" priority="20" numLanes="1" speed="44.44" allow="rail" oneway="1"/>
    <type id="railway.subway" priority="18" numLanes="1" speed="27.78" allow="rail_urban" oneway="1"/>
    <type id="railway.tram" priority="17" numLanes="1" speed="13.89" allow="tram" oneway="1"/>

    <edge id=":1108139591_0" function="internal">
        <lane id=":1108139591_0_0" index="0" disallow="tram rail_urban rail rail_electric rail_fast ship" speed="13.89" length="12.33" shape="382.18,593.46 382.70,589.94 382.37,587.47 381.39,585.06 379.93,581.68"/>
        <lane id=":1108139591_0_1" index="1" disallow="tram rail_urban rail rail_electric rail_fast ship" speed="13.89" length="12.83" shape="382.18,593.46 383.23,589.77 384.01,587.14 384.11,584.57 383.11,581.03"/>
    </edge>
    <edge id=":1108139591_2" function="internal">
        <lane id=":1108139591_2_0" index="0" disallow="tram rail_urban rail rail_electric rail_fast ship" speed="13.89" length="12.79" shape="382.18,593.46 383.21,589.72 384.25,587.27 385.55,584.91 387.33,581.43"/>
        <lane id=":1108139591_2_1" index="1" disallow="tram rail_urban rail rail_electric rail_fast ship" speed="13.89" length="12.79" shape="385.30,594.17 386.28,590.64 387.28,588.32 388.52,586.09 390.22,582.81"/>
    </edge>
    <edge id=":1202330429_0" function="internal">
        <lane id=":1202330429_0_0" index="0" disallow="tram rail_urban rail rail_electric rail_fast ship" speed="3.65" length="4.67" shape="1293.47,247.46 1294.50,248.47 1294.74,249.33 1294.20,250.04 1292.87,250.60"/>
    </edge>
    <edge id=":1202330586_0" function="internal">
        <lane id=":1202330586_0_0" index="0" disallow="tram rail_urban rail rail_electric rail_fast ship" speed="6.66" length="9.03" shape="1075.12,229.48 1073.10,228.09 1071.09,227.64 1069.09,228.12 1067.09,229.54"/>
    </edge>
    <edge id=":1202330586_1" function="internal">
        <lane id=":1202330586_1_0" index="0" disallow="tram rail_urban rail rail_electric rail_fast ship" speed="13.48" length="17.88" shape="1079.35,210.06 1079.29,218.30 1078.92,223.90 1078.26,226.84 1077.29,227.13"/>
    </edge>
    <edge id=":1202330586_2" function="internal">
        <lane id=":1202330586_2_0" index="0" disallow="tram rail_urban rail rail_electric rail_fast ship" speed="13.89" length="22.64" shape="1079.35,210.06 1078.45,212.41 1075.75,216.06 1071.22,220.99 1064.89,227.22"/>
    </edge>
    <edge id=":1202330603_0" function="internal">
        <lane id=":1202330603_0_0" index="0" disallow="tram rail_urban rail rail_electric rail_fast ship" speed="8.33" length="8.96" shape="711.88,291.39 714.46,292.05 716.21,292.53 717.94,293.09 720.43,294.03"/>
    </edge>
    <edge id=":1202330603_1" function="internal">
        <lane id=":1202330603_1_0" index="0" disallow="tram rail_urban rail rail_electric rail_fast ship" speed="7.45" length="8.06" shape="713.20,296.49 715.12,294.93 716.97,294.00 718.74,293.70 720.43,294.03"/>
    </edge>
    <edge id=":1202330922_0" function="internal">
        <lane id=":1202330922_0_0" index="0" disallow="tram rail_urban rail rail_electric rail_fast ship" speed="13.89" length="14.86" shape="1129.60,266.33 1122.15,279.18"/>
    </edge>
    <edge id=":1202330922_1" function="internal">
        <lane id=":1202330922_1_0" index="0" disallow="tram rail_urban rail rail_electric rail_fast ship" speed="7.63" length="4.56" shape="1129.60,266.33 1127.01,269.81 1126.81,269.91"/>
    </edge>
    <edge id=":1202330922_6" function="internal">
        <lane id=":1202330922_6_0" index="0" disallow="tram rail_urban rail rail_electric rail_fast ship" speed="7.63" length="10.66" shape="1126.81,269.91 1124.10,271.31 1120.86,270.83 1117.28,268.37"/>
    </edge>
    <edge id=":1202330922_2" function="internal">
        <lane id=":1202330922_2_0" index="0" disallow="tram rail_urban rail rail_electric rail_fast ship" speed="6.04" length="9.07" shape="1119.45,266.02 1121.58,267.48 1123.51,267.77 1125.25,266.87 1126.79,264.80"/>
    </edge>
    <edge id=":1202330922_3" function="internal">
        <lane id=":1202330922_3_0" index="0" disallow="tram rail_urban rail rail_electric rail_fast ship" speed="8.75" length="14.76" shape="1119.45,266.02 1122.22,269.24 1123.59,272.51 1123.57,275.82 1122.15,279.18"/>
    </edge>
    <edge id=":1202330922_4" function="internal">
        <lane id=":1202330922_4_0" index="0" disallow="tram rail_urban rail rail_electric rail_fast ship" speed="7.39" length="10.26" shape="1119.44,277.48 1120.36,275.22 1120.31,272.95 1119.29,270.67 1117.28,268.37"/>
    </edge>
    <edge id=":1202330922_5" function="internal">
        <lane id=":1202330922_5_0" index="0" disallow="tram rail_urban rail rail_electric rail_fast ship" speed="13.89" length="14.66" shape="1119.44,277.48 1126.79,264.80"/>
    </edge>
    <edge id=":1202330966_0" function="internal">
        <lane id=":1202330966_0_0" index="0" disallow="tram rail_urban rail rail_electric rail_fast ship" speed="5.83" length="9.13" shape="796.48,624.98 793.85,624.55 792.05,625.15 791.08,626.78 790.93,629.44"/>
    </edge>
    <edge id=":1202330966_1" function="internal">
        <lane id=":1202330966_1_0" index="0" disallow="tram rail_urban rail rail_electric rail_fast ship" speed="3.65" length="4.67" shape="796.48,624.98 795.57,623.86 795.43,622.98 796.05,622.34 797.43,621.93"/>
    </edge>
    <edge id=":1202330966_2" function="internal">
        <lane id=":1202330966_2_0" index="0" disallow="tram rail_urban rail rail_electric rail_fast ship" speed="8.13" length="11.14" shape="790.15,614.52 790.63,616.91 792.01,618.95 794.27,620.62 797.43,621.93"/>
    </edge>
    <edge id=":1202330966_3" function="internal">
        <lane id=":1202330966_3_0" index="0" disallow="tram rail_urban rail rail_electric rail_fast ship" speed="13.89" length="14.95" shape="790.15,614.52 790.93,629.44"/>
    </edge>
    <edge id=":1202331199_0" function="internal">
        <lane id=":1202331199_0_0" index="0" disallow="tram rail_urban rail rail_electric rail_fast ship" speed="6.45" length="9.03" shape="986.65,683.79 984.20,683.36 982.23,683.82 980.72,685.18 979.67,687.44"/>
    </edge>
    <edge id=":1202331199_1" function="internal">
        <lane id=":1202331199_1_0" index="0" disallow="tram rail_urban rail rail_electric rail_fast ship" speed="27.78" length="11.35" shape="983.15,676.72 979.67,687.44"/>
        <lane id=":1202331199_1_1" index="1" disallow="tram rail_urban rail rail_electric rail_fast ship" speed="27.78" length="11.35" shape="980.13,675.66 976.61,686.52"/>
    </edge>
    <edge id=":1202331427_0" function="internal">
        <lane id=":1202331427_0_0" index="0" disallow="tram rail_urban rail rail_electric rail_fast ship" speed="4.28" length="5.69" shape="1127.77,727.37 1128.70,729.02 1128.71,729.97 1127.79,730.23 1125.95,729.81"/>
    </edge>
    <edge id=":1202331436_0" function="internal">
        <lane id=":1202331436_0_0" index="0" disallow="tram rail_urban rail rail_electric rail_fast ship" speed="7.20" length="6.61" shape="582.52,282.55 583.04,283.99 583.95,285.22 585.27,286.23 586.98,287.02"/>
    </edge>
    <edge id=":1202331436_1" function="internal">
        <lane id=":1202331436_1_0" index="0" disallow="tram rail_urban rail rail_electric rail_fast ship" speed="13.89" length="7.17" shape="582.52,282.55 582.89,284.63 582.94,286.09 582.73,287.55 582.26,289.62"/>
    </edge>
    <edge id=":1202331476_0" function="internal">
        <lane id=":1202331476_0_0" index="0" disallow="tram rail_urban rail rail_electric rail_fast ship" speed="7.20" length="11.40" shape="833.60,397.64 836.23,400.45 838.70,401.98 840.99,402.24 843.10,401.23"/>
    </edge>
    <edge id=":1202331476_1" function="internal">
        <lane id=":1202331476_1_0" index="0" disallow="tram rail_urban rail rail_electric rail_fast ship" speed="10.42" length="12.93" shape="830.64,402.14 834.62,402.94 838.02,403.05 840.85,402.49 843.10,401.23"/>
    </edge>
    <edge id=":1202331512_0" function="internal">
        <lane id=":1202331512_0_0" index="0" disallow="tram rail_urban rail rail_electric rail_fast ship" speed="6.41" length="9.04" shape="1039.17,621.16 1037.53,623.04 1036.92,624.97 1037.32,626.95 1038.76,628.99"/>
    </edge>
    <edge id=":1202331512_1" function="internal">
        <lane id=":1202331512_1_0" index="0" disallow="tram rail_urban rail rail_electric rail_fast ship" speed="13.89" length="11.19" shape="1039.17,621.16 1030.65,628.41"/>
    </edge>
    <edge id=":1202331544_0" function="internal">
        <lane id=":1202331544_0_0" index="0" disallow="tram rail_urban rail rail_electric rail_fast ship" speed="6.40" length="9.05" shape="919.99,660.38 922.45,660.79 924.42,660.30 925.89,658.90 926.86,656.60"/>
    </edge>
    <edge id=":1202331544_1" function="internal">
        <lane id=":1202331544_1_0" index="0" disallow="tram rail_urban rail rail_electric rail_fast ship" speed="6.40" length="9.04" shape="922.46,670.47 922.99,668.04 922.60,666.05 921.28,664.52 919.03,663.43"/>
    </edge>
    <edge id=":1202331544_2" function="internal">
        <lane id=":1202331544_2_0" index="0" disallow="tram rail_urban rail rail_electric rail_fast ship" speed="27.78" length="14.73" shape="922.46,670.47 923.96,666.42 924.92,663.62 925.75,660.78 926.86,656.60"/>
        <lane id=":1202331544_2_1" index="1" disallow="tram rail_urban rail rail_electric rail_fast ship" speed="27.78" length="14.73" shape="925.45,671.60 926.99,667.45 927.97,664.59 928.82,661.69 929.95,657.41"/>
    </edge>
    <edge id=":1202331561_0" function="internal">
        <lane id=":1202331561_0_0" index="0" disallow="tram rail_urban rail rail_electric rail_fast ship" speed="11.11" length="0.71" shape="601.07,296.09 601.21,296.24 601.31,296.34 601.44,296.42 601.62,296.51"/>
    </edge>
    <edge id=":1438512657_0" function="internal">
        <lane id=":1438512657_0_0" index="0" disallow="tram rail_urban rail rail_electric rail_fast ship" speed="5.94" length="8.22" shape="273.65,19.94 275.02,18.97 276.62,19.01 278.42,20.04 280.45,22.06"/>
    </edge>
    <edge id=":1438512657_1" function="internal">
        <lane id=":1438512657_1_0" index="0" disallow="tram rail_urban rail rail_electric rail_fast ship" speed="3.65" length="4.67" shape="273.65,19.94 275.04,19.55 275.91,19.78 276.25,20.60 276.07,22.03"/>
    </edge>
    <edge id=":1439633350_0" function="internal">
        <lane id=":1439633350_0_0" index="0" disallow="tram rail_urban rail rail_electric rail_fast ship" speed="13.89" length="23.89" shape="796.80,519.27 793.11,542.87"/>
    </edge>
    <edge id=":1439633350_1" function="internal">
        <lane id=":1439633350_1_0" index="0" disallow="tram rail_urban rail rail_electric rail_fast ship" speed="6.41" length="15.83" shape="796.80,519.27 795.74,524.22 793.65,528.29 791.13,530.01 788.77,527.94"/>
    </edge>
    <edge id=":1439633350_2" function="internal">
        <lane id=":1439633350_2_0" index="0" disallow="tram rail_urban rail rail_electric rail_fast ship" speed="5.02" length="8.99" shape="791.67,526.59 792.25,527.10 792.77,526.01 793.22,523.33 793.60,519.05"/>
    </edge>
    <edge id=":1439633350_3" function="internal">
        <lane id=":1439633350_3_0" index="0" disallow="tram rail_urban rail rail_electric rail_fast ship" speed="13.89" length="16.52" shape="791.67,526.59 792.88,530.34 793.42,534.57 793.45,538.87 793.11,542.87"/>
    </edge>
    <edge id=":1439633350_4" function="internal">
        <lane id=":1439633350_4_0" index="0" disallow="tram rail_urban rail rail_electric rail_fast ship" speed="3.65" length="0.28" shape="791.67,526.59 791.63,526.86"/>
    </edge>
    <edge id=":1439633350_5" function="internal">
        <lane id=":1439633350_5_0" index="0" disallow="tram rail_urban rail rail_electric rail_fast ship" speed="3.65" length="4.39" shape="791.63,526.86 791.45,528.01 790.90,528.71 790.00,528.69 788.77,527.94"/>
    </edge>
    <edge id=":1439633506_0" function="internal">
        <lane id=":1439633506_0_0" index="0" disallow="tram rail_urban rail rail_electric rail_fast ship" speed="5.19" length="2.37" shape="788.69,527.76 787.62,529.87"/>
    </edge>
    <edge id=":1439633506_1" function="internal">
        <lane id=":1439633506_1_0" index="0" disallow="tram rail_urban rail rail_electric rail_fast ship" speed="3.65" length="4.67" shape="788.69,527.76 788.90,526.33 789.46,525.63 790.35,525.66 791.59,526.41"/>
    </edge>
    <edge id=":1475039313_0" function="internal">
        <lane id=":1475039313_0_0" index="0" disallow="tram rail_urban rail rail_electric rail_fast ship" speed="3.65" length="4.67" shape="799.83,467.24 800.71,466.10 801.54,465.75 802.31,466.21 803.03,467.46"/>
    </edge>
    <edge id=":1475055589_0" function="internal">
        <lane id=":1475055589_0_0" index="0" disallow="tram rail_urban rail rail_electric rail_fast ship" speed="6.59" length="8.87" shape="638.75,307.72 638.41,310.16 638.88,312.15 640.16,313.69 642.25,314.77"/>
    </edge>
    <edge id=":1475055589_1" function="internal">
        <lane id=":1475055589_1_0" index="0" disallow="tram rail_urban rail rail_electric rail_fast ship" speed="8.33" length="10.82" shape="632.18,310.83 635.00,312.12 637.14,312.99 639.32,313.77 642.25,314.77"/>
    </edge>
    <edge id=":1477716148_0" function="internal">
        <lane id=":1477716148_0_0" index="0" disallow="tram rail_urban rail rail_electric rail_fast ship" speed="13.89" length="11.50" shape="653.70,475.91 650.51,475.70 647.98,475.42 645.47,474.99 642.33,474.37"/>
    </edge>
    <edge id=":1477716148_1" function="internal">
        <lane id=":1477716148_1_0" index="0" disallow="tram rail_urban rail rail_electric rail_fast ship" speed="5.59" length="4.29" shape="646.42,469.22 646.99,471.95 646.59,473.39"/>
    </edge>
    <edge id=":1477716148_2" function="internal">
        <lane id=":1477716148_2_0" index="0" disallow="tram rail_urban rail rail_electric rail_fast ship" speed="5.59" length="4.71" shape="646.59,473.39 646.50,473.72 644.95,474.53 642.33,474.37"/>
    </edge>
    <edge id=":1477716159_0" function="internal">
        <lane id=":1477716159_0_0" index="0" disallow="tram rail_urban rail rail_electric rail_fast ship" speed="3.65" length="4.67" shape="688.17,433.71 689.53,433.24 690.41,433.41 690.80,434.21 690.71,435.65"/>
    </edge>
    <edge id=":1477734138_0" function="internal">
        <lane id=":1477734138_0_0" index="0" disallow="tram rail_urban rail rail_electric rail_fast ship" speed="3.65" length="4.67" shape="427.59,388.60 428.82,387.84 429.71,387.80 430.27,388.50 430.51,389.92"/>
    </edge>
    <edge id=":1738225388_0" function="internal">
        <lane id=":1738225388_0_0" index="0" disallow="tram rail_urban rail rail_electric rail_fast ship" speed="8.34" length="6.87" shape="821.69,291.28 820.28,289.78 818.86,288.69 817.44,288.02 816.01,287.76"/>
    </edge>
    <edge id=":1738225388_1" function="internal">
        <lane id=":1738225388_1_0" index="0" disallow="tram rail_urban rail rail_electric rail_fast ship" speed="9.62" length="7.40" shape="821.69,291.28 820.38,289.56 819.71,288.19 819.49,286.67 819.52,284.49"/>
    </edge>
    <edge id=":1738225388_2" function="internal">
        <lane id=":1738225388_2_0" index="0" disallow="tram rail_urban rail rail_electric rail_fast ship" speed="8.04" length="5.05" shape="822.72,284.59 822.69,286.08 822.83,287.13 823.27,288.07 824.16,289.24"/>
    </edge>
    <edge id=":1738225389_0" function="internal">
        <lane id=":1738225389_0_0" index="0" disallow="tram rail_urban rail rail_electric rail_fast ship" speed="6.39" length="9.19" shape="873.75,349.15 875.60,350.81 877.54,351.40 879.56,350.92 881.66,349.38"/>
    </edge>
    <edge id=":1738225389_1" function="internal">
        <lane id=":1738225389_1_0" index="0" disallow="tram rail_urban rail rail_electric rail_fast ship" speed="6.63" length="8.93" shape="871.25,359.35 872.69,357.50 873.20,355.56 872.79,353.53 871.46,351.40"/>
    </edge>
    <edge id=":1738225389_2" function="internal">
        <lane id=":1738225389_2_0" index="0" disallow="tram rail_urban rail rail_electric rail_fast ship" speed="27.78" length="14.43" shape="871.25,359.35 881.66,349.38"/>
        <lane id=":1738225389_2_1" index="1" disallow="tram rail_urban rail rail_electric rail_fast ship" speed="27.78" length="14.43" shape="873.45,361.67 883.88,351.68"/>
    </edge>
    <edge id=":1738297882_0" function="internal">
        <lane id=":1738297882_0_0" index="0" disallow="tram rail_urban rail rail_electric rail_fast ship" speed="13.89" length="12.71" shape="570.36,250.76 572.18,247.22 573.67,244.89 575.59,242.93 578.72,240.49"/>
        <lane id=":1738297882_0_1" index="1" disallow="tram rail_urban rail rail_electric rail_fast ship" speed="13.89" length="12.71" shape="573.21,252.20 574.83,249.05 576.15,246.97 577.85,245.23 580.63,243.05"/>
    </edge>
    <edge id=":1738297882_2" function="internal">
        <lane id=":1738297882_2_0" index="0" disallow="tram rail_urban rail rail_electric rail_fast ship" speed="5.87" length="9.12" shape="573.21,252.20 574.73,250.03 576.42,249.14 578.29,249.53 580.34,251.21"/>
    </edge>
    <edge id=":1753367506_0" function="internal">
        <lane id=":1753367506_0_0" index="0" disallow="tram rail_urban rail rail_electric rail_fast ship" speed="13.89" length="11.39" shape="743.21,206.90 740.04,206.88 737.54,207.22 735.04,207.57 731.87,207.55"/>
    </edge>
    <edge id=":1753367506_1" function="internal">
        <lane id=":1753367506_1_0" index="0" disallow="tram rail_urban rail rail_electric rail_fast ship" speed="7.03" length="6.37" shape="743.21,206.90 740.81,206.24 739.16,204.74 738.56,203.20"/>
    </edge>
    <edge id=":1753367506_3" function="internal">
        <lane id=":1753367506_3_0" index="0" disallow="tram rail_urban rail rail_electric rail_fast ship" speed="7.03" length="4.07" shape="738.56,203.20 738.24,202.39 738.06,199.19"/>
    </edge>
    <edge id=":1753367506_2" function="internal">
        <lane id=":1753367506_2_0" index="0" disallow="tram rail_urban rail rail_electric rail_fast ship" speed="6.44" length="9.03" shape="732.13,204.36 734.62,204.22 736.43,203.30 737.58,201.63 738.06,199.19"/>
    </edge>
    <edge id=":1767910286_0" function="internal">
        <lane id=":1767910286_0_0" index="0" disallow="tram rail_urban rail rail_electric rail_fast ship" speed="3.65" length="4.67" shape="773.82,380.23 773.43,378.84 773.64,377.97 774.46,377.62 775.90,377.79"/>
    </edge>
    <edge id=":1767910325_0" function="internal">
        <lane id=":1767910325_0_0" index="0" disallow="tram rail_urban rail rail_electric rail_fast ship" speed="13.89" length="16.21" shape="703.97,214.41 687.85,212.74"/>
    </edge>
    <edge id=":1767910325_1" function="internal">
        <lane id=":1767910325_1_0" index="0" disallow="tram rail_urban rail rail_electric rail_fast ship" speed="7.38" length="5.47" shape="703.97,214.41 698.63,213.18"/>
    </edge>
    <edge id=":1767910325_6" function="internal">
        <lane id=":1767910325_6_0" index="0" disallow="tram rail_urban rail rail_electric rail_fast ship" speed="7.38" length="12.60" shape="698.63,213.18 698.48,213.15 695.97,210.83 696.44,207.46 699.89,203.03"/>
    </edge>
    <edge id=":1767910325_2" function="internal">
        <lane id=":1767910325_2_0" index="0" disallow="tram rail_urban rail rail_electric rail_fast ship" speed="5.51" length="9.39" shape="702.10,205.35 700.32,207.63 700.10,209.37 701.43,210.57 704.30,211.23"/>
    </edge>
    <edge id=":1767910325_3" function="internal">
        <lane id=":1767910325_3_0" index="0" disallow="tram rail_urban rail rail_electric rail_fast ship" speed="12.24" length="16.53" shape="702.10,205.35 698.21,208.82 694.53,211.21 691.08,212.51 687.85,212.74"/>
    </edge>
    <edge id=":1767910325_4" function="internal">
        <lane id=":1767910325_4_0" index="0" disallow="tram rail_urban rail rail_electric rail_fast ship" speed="11.21" length="13.78" shape="688.17,209.55 690.68,209.32 693.47,208.16 696.54,206.06 699.89,203.03"/>
    </edge>
    <edge id=":1767910325_5" function="internal">
        <lane id=":1767910325_5_0" index="0" disallow="tram rail_urban rail rail_electric rail_fast ship" speed="13.89" length="16.22" shape="688.17,209.55 704.30,211.23"/>
    </edge>
    <edge id=":1789044193_0" function="internal">
        <lane id=":1789044193_0_0" index="0" disallow="tram rail_urban rail rail_electric rail_fast ship" speed="3.65" length="4.67" shape="105.47,228.55 104.50,227.48 104.31,226.61 104.89,225.93 106.25,225.45"/>
    </edge>
    <edge id=":1789063368_0" function="internal">
        <lane id=":1789063368_0_0" index="0" disallow="tram rail_urban rail rail_electric rail_fast ship" speed="4.25" length="1.23" shape="794.61,431.60 794.92,431.79 795.15,431.88 795.41,431.89 795.77,431.84"/>
    </edge>
    <edge id=":1837444714_0" function="internal">
        <lane id=":1837444714_0_0" index="0" disallow="tram rail_urban rail rail_electric rail_fast ship" speed="6.23" length="8.37" shape="657.40,617.59 659.64,618.99 661.61,619.49 663.31,619.08 664.75,617.77"/>
    </edge>
    <edge id=":1837444714_1" function="internal">
        <lane id=":1837444714_1_0" index="0" disallow="tram rail_urban rail rail_electric rail_fast ship" speed="10.63" length="10.98" shape="657.40,617.59 658.85,619.16 659.99,621.35 660.80,624.16 661.28,627.58"/>
    </edge>
    <edge id=":1837444738_0" function="internal">
        <lane id=":1837444738_0_0" index="0" disallow="tram rail_urban rail rail_electric rail_fast ship" speed="7.42" length="8.56" shape="653.37,644.26 652.49,642.45 651.09,641.10 649.16,640.20 646.72,639.76"/>
    </edge>
    <edge id=":1837444738_1" function="internal">
        <lane id=":1837444738_1_0" index="0" disallow="tram rail_urban rail rail_electric rail_fast ship" speed="8.29" length="9.26" shape="658.50,634.75 657.04,636.69 656.21,638.77 656.01,640.98 656.43,643.32"/>
    </edge>
    <edge id=":1837444738_2" function="internal">
        <lane id=":1837444738_2_0" index="0" disallow="tram rail_urban rail rail_electric rail_fast ship" speed="10.92" length="13.24" shape="658.50,634.75 655.80,637.14 652.94,638.77 649.91,639.65 646.72,639.76"/>
    </edge>
    <edge id=":1984844399_0" function="internal">
        <lane id=":1984844399_0_0" index="0" disallow="tram rail_urban rail rail_electric rail_fast ship" speed="8.33" length="7.76" shape="690.72,317.91 692.14,316.24 692.63,314.76 692.65,313.07 692.64,310.74"/>
    </edge>
    <edge id=":1984844399_1" function="internal">
        <lane id=":1984844399_1_0" index="0" disallow="tram rail_urban rail rail_electric rail_fast ship" speed="8.33" length="7.89" shape="690.72,317.91 696.44,312.48"/>
    </edge>
    <edge id=":1984844407_0" function="internal">
        <lane id=":1984844407_0_0" index="0" disallow="tram rail_urban rail rail_electric rail_fast ship" speed="6.80" length="8.19" shape="693.50,291.83 693.33,289.51 692.61,287.68 691.32,286.34 689.47,285.49"/>
    </edge>
    <edge id=":1984844407_1" function="internal">
        <lane id=":1984844407_1_0" index="0" disallow="tram rail_urban rail rail_electric rail_fast ship" speed="5.72" length="7.80" shape="693.50,291.83 693.91,289.67 694.92,288.30 696.51,287.74 698.70,287.99"/>
    </edge>
    <edge id=":2294805688_0" function="internal">
        <lane id=":2294805688_0_0" index="0" disallow="tram rail_urban rail rail_electric rail_fast ship" speed="13.89" length="15.15" shape="827.06,252.66 825.24,255.90 824.13,259.51 823.55,263.30 823.30,267.11"/>
    </edge>
    <edge id=":2294805688_1" function="internal">
        <lane id=":2294805688_1_0" index="0" disallow="tram rail_urban rail rail_electric rail_fast ship" speed="10.78" length="13.50" shape="822.58,253.73 823.08,254.93 823.36,257.57 823.44,261.62 823.30,267.11"/>
    </edge>
    <edge id=":2294805688_2" function="internal">
        <lane id=":2294805688_2_0" index="0" disallow="tram rail_urban rail rail_electric rail_fast ship" speed="7.93" length="7.06" shape="820.10,266.98 819.92,265.57 819.26,264.13 818.12,262.66 816.51,261.17"/>
        <lane id=":2294805688_2_1" index="1" disallow="tram rail_urban rail rail_electric rail_fast ship" speed="8.71" length="8.64" shape="820.10,266.98 820.10,263.91 819.84,261.51 819.32,259.77 818.53,258.69"/>
    </edge>
    <edge id=":262729615_0" function="internal">