<?xml version="1.0" ?>
<!-- Generated by MOSAIC scenario-convert 18.0 -->
<routes>
	<vType id="default" length="7.5" maxSpeed="50" minGap="2.0" carFollowModel="Krauss" accel="0.80" decel="4.5" sigma="0.5" tau="1"/>
	<route id="44" edges="24267122#0 24267122#1 24267122#2 450682083 303127222 520281210 1067225800#0 1067225800#1 1067225799 161870606 24267114#0 -161863237#1 161863239 104203857#0 161870611 450682080#1 25329179 24267075 40285031#0 40285031#1 40285042 27610290" />
	<route id="45" edges="24267122#0 24267122#1 24267122#2 450682083 303127222 520281210 1067225800#0 1067225800#1 1067225799 161870606 24267114#0 -161863237#1 161863239 104203857#0 161870611 450682080#1 41736416#0 525352735 608022302 41779466 608022304 24267056#0 24267056#1 1067232684#0 525352729 521369415 521369414 116726097#2" />
	<route id="46" edges="24267122#0 24267122#1 24267122#2 450682083 303127222 520281210 1067225800#0 1067225800#1 1067225799 161870606 24267114#0 -161863237#1 161863239 104203857#0 161870611 450682080#1 25329179 24267075 40285031#0 40285031#1 40285042 27610290 157520966#0 24267178 211816963#0 135530867#1" />
	<route id="47" edges="24267122#0 24267122#1 24267122#2 450682083 303127222 520281210 1067225800#0 1067225800#1 1067225799 161870606 24267114#0 -161863237#1 161863239 104203857#0 161870611 450682080#1 41736416#0 525352735 608022302 41779466 608022304 24267056#0 24267056#1 1067232684#0 604826209" />
	<route id="48" edges="24267122#0 24267122#1 24267122#2 450682083 303127222 24267065 303127234 1066387390 303127277 32501129#1 32501129#2 104203815 135000899 520907937 25329248 -135000604#1 -1066387382#1 -32501217 -32501230" />
	<route id="49" edges="24267122#0 24267122#1 24267122#2 450682083 303127222 24267065 303127234 1066387390 303127277 32501129#1 32501129#2 104203815 135000899 520907937" />
	<route id="50" edges="24267122#0 24267122#1 24267122#2 450682083 303127222 520281210 1067225800#0 1067225800#1 1067225799 161870606 24267114#0 24267114#1" />
	<route id="51" edges="24267122#0 24267122#1 24267122#2 450682083 303127222 520281210 1067225800#0 1067225800#1 1067225799 161870606 24267114#0 -161863237#1 161863239 104203857#0 161870611 450682080#1 25329179 24267075 40285031#0 40285031#1 40285042 116135245#0" />
	<route id="52" edges="520281211#0 303127223 450682083 303127222 520281210 1067225800#0 135530868#1 135530868#2 161870606 24267114#0 -161863237#1 161863239 104203857#0 161870611 450682080#1 25329179 24267075 40285031#0 40285031#1 40285042 27610290" />
	<route id="53" edges="520281211#0 303127223 450682083 303127222 520281210 1067225800#0 135530868#1 135530868#2 161870606 24267114#0 -161863237#1 161863239 104203857#0 161870611 450682080#1 25329179 24267075 40285031#0 40285031#1 40285042 27610290 157520966#0 24267178 211816963#0 135530867#1" />
	<route id="10" edges="135530867#0 135530867#1 1067179857 1067232684#0 604826209" />
	<route id="54" edges="520281211#0 303127223 450682083 303127222 520281210 1067225800#0 135530868#1 135530868#2 161870606 24267114#0 -161863237#1 161863239 104203857#0 161870611 450682080#1 41736416#0 525352735 608022302 41779466 608022304 24267056#0 24267056#1 1067232684#0 525352729 521369415 521369414 116726097#2" />
	<route id="11" edges="135530867#0 135530867#1 1067179857 1067232685 518870782#0 518870782#1 518870782#2 24267075 24267081 24267079 161870611 450682080#1 41736416#0 525352735 608022302 -303407190 -32501230" />
	<route id="55" edges="520281211#0 303127223 450682083 303127222 520281210 1067225800#0 135530868#1 135530868#2 161870606 24267114#0 -161863237#1 161863239 104203857#0 161870611 450682080#1 25329179 24267075 40285031#0 40285031#1 40285042 27610290 157520966#0 24267178 211816963#0 135530867#1" />
	<route id="12" edges="135530867#0 135530867#1 1067179857 1067232685 518870782#0 518870782#1 518870782#2 24267075 24267081 161870607#0 -1067179852 -450682081#1 -161870608 24267088 161863237#0 24267114#1 520281211#0 303127223 450682083 303127222 24267065 303127234 1066387390 303127277 32501129#1 32501129#2 104203815 135000899 520907937" />
	<route id="56" edges="520281211#0 303127223 450682083 303127222 520281210 1067225800#0 135530868#1 135530868#2 161870606 24267114#0 -161863237#1 161863239 104203857#0 161870611 450682080#1 41736416#0 525352735 608022302 41779466 608022304 24267056#0 24267056#1 1067232684#0 604826209" />
	<route id="13" edges="135530867#0 135530867#1 1067179857 1067232685 518870782#0 518870782#1 518870782#2 24267075 24267081 161870607#0 -1067179852 -450682081#1 -161870608 24267088 161863237#0 24267114#1 520281211#0 520281211#1 520281211#2 1066387398" />
	<route id="57" edges="520281211#0 303127223 450682083 303127222 24267065 303127234 1066387390 303127277 32501129#1 32501129#2 104203815 135000899 520907937 25329248 -135000604#1 -1066387382#1 -32501217 -32501230" />
	<route id="14" edges="135530867#0 135530867#1 1067179857 1067232685 518870782#0 518870782#1 518870782#2 24267075 24267081 161870607#0 -1067179852 -450682081#1 -161870608 24267088 161863237#0 24267114#1" />
	<route id="58" edges="520281211#0 303127223 450682083 303127222 24267065 303127234 1066387390 303127277 32501129#1 32501129#2 104203815 135000899 520907937" />
	<route id="15" edges="135530867#0 135530867#1 1067179857 1067232685 518870782#0 518870782#1" />
	<route id="59" edges="520281211#0 520281211#1 520281211#2 1066387398" />
	<route id="16" edges="303409704#0 521369415 525352728 1067179857 1067232685 518870782#0 518870782#1 518870782#2 24267075 40285031#0 40285031#1 40285042 27610290" />
	<route id="17" edges="303409704#0 521369415 525352728 1067179857 1067232685 518870782#0 518870782#1 518870782#2 24267075 40285031#0 40285031#1 40285042 27610290 157520966#0 24267178 211816963#0 135530867#1" />
	<route id="18" edges="303409704#0 521369415 521369414 116726097#2" />
	<route id="19" edges="303409704#0 521369415 525352728 1067179857 1067232684#0 604826209" />
	<route id="1" edges="157520966#0 24267178 211816963#0 116726097#2" />
	<route id="2" edges="157520966#0 157520966#2 1067232684#0 604826209" />
	<route id="3" edges="157520966#0 157520966#2 1067232685 518870782#0 518870782#1 518870782#2 24267075 24267081 24267079 161870611 450682080#1 41736416#0 525352735 608022302 -303407190 -32501230" />
	<route id="4" edges="157520966#0 157520966#2 1067232685 518870782#0 518870782#1 518870782#2 24267075 24267081 161870607#0 -1067179852 -450682081#1 -161870608 24267088 161863237#0 24267114#1 520281211#0 303127223 450682083 303127222 24267065 303127234 1066387390 303127277 32501129#1 32501129#2 104203815 135000899 520907937" />
	<route id="5" edges="157520966#0 157520966#2 1067232685 518870782#0 518870782#1 518870782#2 24267075 24267081 161870607#0 -1067179852 -450682081#1 -161870608 24267088 161863237#0 24267114#1 520281211#0 520281211#1 520281211#2 1066387398" />
	<route id="6" edges="157520966#0 157520966#2 1067232685 518870782#0 518870782#1 518870782#2 24267075 24267081 161870607#0 -1067179852 -450682081#1 -161870608 24267088 161863237#0 24267114#1" />
	<route id="7" edges="157520966#0 157520966#2 1067232685 518870782#0 518870782#1" />
	<route id="8" edges="135530867#0 135530867#1 1067179857 1067232685 518870782#0 518870782#1 518870782#2 24267075 40285031#0 40285031#1 40285042 27610290" />
	<route id="9" edges="135530867#0 116726097#2" />
	<route id="60" edges="520281211#0 303127223 450682083 303127222 520281210 1067225800#0 135530868#1 135530868#2 161870606 24267114#0 -161863237#1 161863239 104203857#0 161870611 450682080#1 25329179 24267075 40285031#0 40285031#1 40285042 116135245#0" />
	<route id="61" edges="518870782#2 24267075 40285031#0 40285031#1 40285042 27610290" />
	<route id="62" edges="518870782#2 24267075 40285031#0 40285031#1 40285042 27610290 157520966#0 24267178 211816963#0 135530867#1" />
	<route id="63" edges="518870782#2 24267075 24267081 24267079 161870611 450682080#1 41736416#0 525352735 608022302 41779466 608022304 24267056#0 24267056#1 1067232684#0 525352729 521369415 521369414 116726097#2" />
	<route id="20" edges="303409704#0 521369415 525352728 1067179857 1067232685 518870782#0 518870782#1 518870782#2 24267075 24267081 24267079 161870611 450682080#1 41736416#0 525352735 608022302 -303407190 -32501230" />
	<route id="64" edges="518870782#2 24267075 40285031#0 40285031#1 40285042 27610290 157520966#0 24267178 211816963#0 135530867#1" />
	<route id="21" edges="303409704#0 521369415 525352728 1067179857 1067232685 518870782#0 518870782#1 518870782#2 24267075 24267081 161870607#0 -1067179852 -450682081#1 -161870608 24267088 161863237#0 24267114#1 520281211#0 303127223 450682083 303127222 24267065 303127234 1066387390 303127277 32501129#1 32501129#2 104203815 135000899 520907937" />
	<route id="65" edges="518870782#2 24267075 24267081 24267079 161870611 450682080#1 41736416#0 525352735 608022302 41779466 608022304 24267056#0 24267056#1 1067232684#0 604826209" />
	<route id="22" edges="303409704#0 521369415 525352728 1067179857 1067232685 518870782#0 518870782#1 518870782#2 24267075 24267081 161870607#0 -1067179852 -450682081#1 -161870608 24267088 161863237#0 24267114#1 520281211#0 520281211#1 520281211#2 1066387398" />
	<route id="66" edges="518870782#2 24267075 24267081 24267079 161870611 450682080#1 41736416#0 525352735 608022302 -303407190 -32501230" />
	<route id="23" edges="303409704#0 521369415 525352728 1067179857 1067232685 518870782#0 518870782#1 518870782#2 24267075 24267081 161870607#0 -1067179852 -450682081#1 -161870608 24267088 161863237#0 24267114#1" />
	<route id="67" edges="518870782#2 24267075 24267081 161870607#0 -1067179852 -450682081#1 -161870608 24267088 161863237#0 24267114#1 520281211#0 303127223 450682083 303127222 24267065 303127234 1066387390 303127277 32501129#1 32501129#2 104203815 135000899 520907937" />
	<route id="24" edges="303409704#0 521369415 525352728 1067179857 1067232685 518870782#0 518870782#1" />
	<route id="68" edges="518870782#2 24267075 24267081 161870607#0 -1067179852 -450682081#1 -161870608 24267088 161863237#0 24267114#1 520281211#0 520281211#1 520281211#2 1066387398" />
	<route id="25" edges="32501230 303407190 41779466 608022304 24267056#0 24267056#1 1067232684#0 525352729 521369415 525352728 1067179857 1067232685 518870782#0 518870782#1 518870782#2 24267075 40285031#0 40285031#1 40285042 27610290" />
	<route id="69" edges="518870782#2 24267075 24267081 161870607#0 -1067179852 -450682081#1 -161870608 24267088 161863237#0 24267114#1" />
	<route id="26" edges="32501230 303407190 41779466 608022304 24267056#0 24267056#1 1067232684#0 525352729 521369415 525352728 1067179857 1067232685 518870782#0 518870782#1 518870782#2 24267075 40285031#0 40285031#1 40285042 27610290 157520966#0 24267178 211816963#0 135530867#1" />
	<route id="27" edges="32501230 303407190 41779466 608022304 24267056#0 24267056#1 1067232684#0 525352729 521369415 521369414 116726097#2" />
	<route id="28" edges="32501230 303407190 41779466 608022304 24267056#0 24267056#1 1067232684#0 525352729 521369415 525352728 1067179857 1067232685 518870782#0 518870782#1 518870782#2 24267075 40285031#0 40285031#1 40285042 27610290 157520966#0 24267178 211816963#0 135530867#1" />
	<route id="29" edges="32501230 303407190 41779466 608022304 24267056#0 24267056#1 1067232684#0 604826209" />
	<route id="30" edges="32501230 32501217 1066387382#0 135000604#0 520907938 1066387385 32501129#0 32501129#1 32501129#2 104203815 135000899 520907937" />
	<route id="31" edges="32501230 32501217 1066387382#0 135000604#0 520907938 1066387385 24267063 -1066387390 -303127234 1067225801 1067225800#0 1067225800#1 1067225799 161870606 24267114#0 24267114#1 520281211#0 520281211#1 520281211#2 1066387398" />
	<route id="32" edges="32501230 32501217 1066387382#0 135000604#0 520907938 1066387385 24267063 -1066387390 -303127234 1067225801 1067225800#0 1067225800#1 1067225799 161870606 24267114#0 24267114#1" />
	<route id="33" edges="32501230 303407190 41779466 608022304 24267056#0 24267056#1 1067232684#0 525352729 521369415 525352728 1067179857 1067232685 518870782#0 518870782#1" />
	<route id="34" edges="25329248 520907938 1066387385 24267063 -1066387390 -303127234 1067225801 1067225800#0 1067225800#1 1067225799 161870606 24267114#0 -161863237#1 161863239 104203857#0 161870611 450682080#1 25329179 24267075 40285031#0 40285031#1 40285042 27610290" />
	<route id="35" edges="25329248 520907938 1066387385 24267063 -1066387390 -303127234 1067225801 1067225800#0 1067225800#1 1067225799 161870606 24267114#0 -161863237#1 161863239 104203857#0 161870611 450682080#1 25329179 24267075 40285031#0 40285031#1 40285042 27610290 157520966#0 24267178 211816963#0 135530867#1" />
	<route id="36" edges="25329248 520907938 1066387385 24267063 -1066387390 -303127234 1067225801 1067225800#0 1067225800#1 1067225799 161870606 24267114#0 -161863237#1 161863239 104203857#0 161870611 450682080#1 41736416#0 525352735 608022302 41779466 608022304 24267056#0 24267056#1 1067232684#0 525352729 521369415 521369414 116726097#2" />
	<route id="37" edges="25329248 520907938 1066387385 24267063 -1066387390 -303127234 1067225801 1067225800#0 1067225800#1 1067225799 161870606 24267114#0 -161863237#1 161863239 104203857#0 161870611 450682080#1 25329179 24267075 40285031#0 40285031#1 40285042 27610290 157520966#0 24267178 211816963#0 135530867#1" />
	<route id="38" edges="25329248 520907938 1066387385 24267063 -1066387390 -303127234 1067225801 1067225800#0 1067225800#1 1067225799 161870606 24267114#0 -161863237#1 161863239 104203857#0 161870611 450682080#1 41736416#0 525352735 608022302 41779466 608022304 24267056#0 24267056#1 1067232684#0 604826209" />
	<route id="39" edges="25329248 -135000604#1 -1066387382#1 -32501217 -32501230" />
	<route id="40" edges="25329248 520907938 1066387385 24267063 -1066387390 -303127234 1067225801 1067225800#0 1067225800#1 1067225799 161870606 24267114#0 24267114#1 520281211#0 520281211#1 520281211#2 1066387398" />
	<route id="41" edges="25329248 520907938 1066387385 24267063 -1066387390 -303127234 1067225801 1067225800#0 1067225800#1 1067225799 161870606 24267114#0 24267114#1" />
	<route id="42" edges="25329248 520907938 1066387385 24267063 -1066387390 -303127234 1067225801 1067225800#0 1067225800#1 1067225799 161870606 24267114#0 -161863237#1 161863239 104203857#0 161870611 450682080#1 25329179 24267075 40285031#0 40285031#1 40285042 116135245#0" />
	<route id="43" edges="24267122#0 24267122#1 24267122#2 450682083 303127222 520281210 1067225800#0 1067225800#1 1067225799 161870606 24267114#0 -161863237#1 161863239 104203857#0 161870611 450682080#1 25329179 24267075 40285031#0 40285031#1 40285042 27610290" />
</routes>