<?xml version="1.0" encoding="UTF-8"?>

<!-- generated on 2023-01-12 10:44:22 by Eclipse SUMO netedit Version 1.14.0
<configuration xmlns:xsi="http://www.w3.org/2001/XMLSchema-instance" xsi:noNamespaceSchemaLocation="http://sumo.dlr.de/xsd/netconvertConfiguration.xsd">

    <input>
        <sumo-net-file value="C:\Users\goliv\Desktop\Guimaraes\osm.net.xml"/>
    </input>

    <output>
        <output-file value="C:\Users\goliv\Desktop\Guimaraes\osm.net.xml"/>
        <output.street-names value="true"/>
    </output>

    <processing>
        <geometry.min-radius.fix.railways value="false"/>
        <geometry.max-grade.fix value="false"/>
        <offset.disable-normalization value="true"/>
        <lefthand value="false"/>
    </processing>

    <junctions>
        <no-internal-links value="false"/>
        <no-turnarounds value="true"/>
        <junctions.corner-detail value="5"/>
        <junctions.limit-turn-speed value="5.5"/>
        <rectangular-lane-cut value="false"/>
    </junctions>

    <pedestrian>
        <walkingareas value="true"/>
    </pedestrian>

</configuration>
-->

<net version="1.9" junctionCornerDetail="5" walkingareas="true" limitTurnSpeed="5.50" xmlns:xsi="http://www.w3.org/2001/XMLSchema-instance" xsi:noNamespaceSchemaLocation="http://sumo.dlr.de/xsd/net_file.xsd">

    <location netOffset="-557858.69,-4587217.45" convBoundary="0.00,0.00,1853.95,1901.48" origBoundary="-8.307370,41.434351,-8.285148,41.451470" projParameter="+proj=utm +zone=29 +ellps=WGS84 +datum=WGS84 +units=m +no_defs"/>

    <type id="highway.bridleway" priority="1" numLanes="1" speed="2.78" allow="pedestrian" oneway="1" width="2.00"/>
    <type id="highway.bus_guideway" priority="1" numLanes="1" speed="13.89" allow="bus" oneway="1"/>
    <type id="highway.cycleway" priority="1" numLanes="1" speed="5.56" allow="bicycle" oneway="0" width="1.00"/>
    <type id="highway.footway" priority="1" numLanes="1" speed="2.78" allow="pedestrian" oneway="1" width="2.00"/>
    <type id="highway.ford" priority="1" numLanes="1" speed="2.78" allow="army" oneway="0"/>
    <type id="highway.living_street" priority="2" numLanes="1" speed="2.78" disallow="tram rail_urban rail rail_electric rail_fast ship" oneway="0"/>
    <type id="highway.motorway" priority="14" numLanes="2" speed="27.78" allow="private emergency authority army vip passenger hov taxi bus coach delivery truck trailer motorcycle evehicle custom1 custom2" oneway="1"/>
    <type id="highway.motorway_link" priority="9" numLanes="1" speed="16.67" allow="private emergency authority army vip passenger hov taxi bus coach delivery truck trailer motorcycle evehicle custom1 custom2" oneway="1"/>
    <type id="highway.path" priority="1" numLanes="1" speed="5.56" allow="pedestrian bicycle" oneway="0" width="2.00"/>
    <type id="highway.pedestrian" priority="1" numLanes="1" speed="2.78" allow="pedestrian" oneway="1" width="2.00"/>
    <type id="highway.primary" priority="12" numLanes="2" speed="13.89" disallow="pedestrian tram rail_urban rail rail_electric rail_fast ship" oneway="0" sidewalkWidth="3.00"/>
    <type id="highway.primary_link" priority="7" numLanes="1" speed="13.89" disallow="pedestrian tram rail_urban rail rail_electric rail_fast ship" oneway="0" sidewalkWidth="3.00"/>
    <type id="highway.raceway" priority="15" numLanes="2" speed="83.33" allow="vip" oneway="0"/>
    <type id="highway.residential" priority="3" numLanes="1" speed="13.89" disallow="pedestrian tram rail_urban rail rail_electric rail_fast ship" oneway="0" sidewalkWidth="2.00"/>
    <type id="highway.secondary" priority="11" numLanes="1" speed="13.89" disallow="pedestrian tram rail_urban rail rail_electric rail_fast ship" oneway="0" sidewalkWidth="3.00"/>
    <type id="highway.secondary_link" priority="6" numLanes="1" speed="13.89" disallow="pedestrian tram rail_urban rail rail_electric rail_fast ship" oneway="0" sidewalkWidth="3.00"/>
    <type id="highway.service" priority="1" numLanes="1" speed="5.56" allow="pedestrian delivery bicycle" oneway="0"/>
    <type id="highway.stairs" priority="1" numLanes="1" speed="1.39" allow="pedestrian" oneway="1" width="2.00"/>
    <type id="highway.step" priority="1" numLanes="1" speed="1.39" allow="pedestrian" oneway="1" width="2.00"/>
    <type id="highway.steps" priority="1" numLanes="1" speed="1.39" allow="pedestrian" oneway="1" width="2.00"/>
    <type id="highway.tertiary" priority="10" numLanes="1" speed="13.89" disallow="pedestrian tram rail_urban rail rail_electric rail_fast ship" oneway="0" sidewalkWidth="3.00"/>
    <type id="highway.tertiary_link" priority="5" numLanes="1" speed="13.89" disallow="pedestrian tram rail_urban rail rail_electric rail_fast ship" oneway="0" sidewalkWidth="2.00"/>
    <type id="highway.track" priority="1" numLanes="1" speed="5.56" allow="pedestrian motorcycle moped bicycle" oneway="0"/>
    <type id="highway.trunk" priority="13" numLanes="2" speed="13.89" disallow="pedestrian bicycle tram rail_urban rail rail_electric rail_fast ship" oneway="0"/>
    <type id="highway.trunk_link" priority="8" numLanes="1" speed="13.89" disallow="pedestrian bicycle tram rail_urban rail rail_electric rail_fast ship" oneway="0"/>
    <type id="highway.unclassified" priority="4" numLanes="1" speed="13.89" disallow="pedestrian tram rail_urban rail rail_electric rail_fast ship" oneway="0" sidewalkWidth="2.00"/>
    <type id="highway.unsurfaced" priority="1" numLanes="1" speed="8.33" disallow="tram rail_urban rail rail_electric rail_fast ship" oneway="0"/>
    <type id="railway.highspeed" priority="21" numLanes="1" speed="69.44" allow="rail_fast" oneway="1"/>
    <type id="railway.light_rail" priority="19" numLanes="1" speed="27.78" allow="rail_urban" oneway="1"/>
    <type id="railway.preserved" priority="16" numLanes="1" speed="27.78" allow="rail" oneway="1"/>
    <type id="railway.rail" priority="20" numLanes="1" speed="44.44" allow="rail" oneway="1"/>
    <type id="railway.subway" priority="18" numLanes="1" speed="27.78" allow="rail_urban" oneway="1"/>
    <type id="railway.tram" priority="17" numLanes="1" speed="13.89" allow="tram" oneway="1"/>

    <edge id=":10124418145_0" function="internal">
        <lane id=":10124418145_0_0" index="0" allow="pedestrian delivery bicycle" speed="3.65" length="4.67" shape="1269.14,382.61 1270.52,383.02 1271.15,383.66 1271.00,384.54 1270.10,385.67"/>
    </edge>
    <edge id=":10124418157_0" function="internal">
        <lane id=":10124418157_0_0" index="0" allow="delivery bicycle" speed="6.09" length="7.10" shape="1219.15,401.71 1216.82,402.62 1215.22,403.65 1214.37,404.79 1214.26,406.06"/>
    </edge>
    <edge id=":10124418157_1" function="internal">
        <lane id=":10124418157_1_0" index="0" allow="pedestrian delivery bicycle" speed="3.65" length="4.67" shape="1219.15,401.71 1217.76,401.30 1217.14,400.66 1217.28,399.78 1218.19,398.65"/>
    </edge>
    <edge id=":10124418157_2" function="internal">
        <lane id=":10124418157_2_0" index="0" allow="delivery bicycle" speed="5.60" length="6.95" shape="1212.45,396.79 1213.07,398.21 1214.22,398.99 1215.93,399.13 1218.19,398.65"/>
    </edge>
    <edge id=":10124418157_3" function="internal">
        <lane id=":10124418157_3_0" index="0" disallow="pedestrian tram rail_urban rail rail_electric rail_fast ship" speed="13.89" length="9.44" shape="1212.45,396.79 1214.26,406.06"/>
    </edge>
    <edge id=":10124418157_c0" function="crossing" crossingEdges="104203853#1">
        <lane id=":10124418157_c0_0" index="0" allow="pedestrian" speed="1.00" length="3.20" width="4.00" shape="1215.45,403.79 1212.31,404.40"/>
    </edge>
    <edge id=":10124418157_w0" function="walkingarea">
        <lane id=":10124418157_w0_0" index="0" allow="pedestrian" speed="1.00" length="6.39" width="4.00" shape="1210.88,397.10 1208.92,397.48 1210.73,406.75 1212.69,406.37 1211.93,402.44"/>
    </edge>
    <edge id=":10124418157_w1" function="walkingarea">
        <lane id=":10124418157_w1_0" index="0" allow="pedestrian" speed="1.00" length="5.48" width="4.00" shape="1215.07,401.83 1215.83,405.75 1217.79,405.37 1219.63,403.23 1218.67,400.18 1218.67,400.18 1217.71,397.13 1215.99,396.11 1214.02,396.49"/>
    </edge>
    <edge id=":10124664526_w0" function="walkingarea">
        <lane id=":10124664526_w0_0" index="0" allow="pedestrian" speed="1.00" length="4.47" width="2.00" shape="1243.65,500.62 1243.23,498.67 1241.88,497.49 1239.89,497.32 1237.82,499.59 1238.06,501.57 1239.43,502.89 1241.42,503.05"/>
    </edge>
    <edge id=":10217234860_0" function="internal">
        <lane id=":10217234860_0_0" index="0" disallow="pedestrian tram rail_urban rail rail_electric rail_fast ship" speed="13.89" length="3.52" shape="858.70,1059.44 858.07,1060.19 857.33,1060.46 856.60,1060.73 855.98,1061.48"/>
    </edge>
    <edge id=":10217234860_c0" function="crossing" crossingEdges="1117159562#0">
        <lane id=":10217234860_c0_0" index="0" allow="pedestrian" speed="1.00" length="3.20" width="4.00" shape="856.40,1060.57 859.30,1061.93"/>
    </edge>
    <edge id=":10217234860_w0" function="walkingarea">
        <lane id=":10217234860_w0_0" index="0" allow="pedestrian" speed="1.00" length="2.30" width="4.00" shape="857.43,1062.16 860.15,1063.41 862.86,1061.38 860.14,1060.11 859.74,1060.69 859.28,1060.98 858.79,1061.13 858.29,1061.28 857.83,1061.58"/>
    </edge>
    <edge id=":10217234860_w1" function="walkingarea">
        <lane id=":10217234860_w1_0" index="0" allow="pedestrian" speed="1.00" length="2.50" width="4.00" shape="857.25,1058.76 854.53,1057.49 854.93,1060.23 855.39,1059.94 855.88,1059.79 856.38,1059.63 856.84,1059.34"/>
    </edge>
    <edge id=":1108139591_0" function="internal">
        <lane id=":1108139591_0_0" index="0" disallow="pedestrian tram rail_urban rail rail_electric rail_fast ship" speed="13.89" length="12.92" shape="809.65,1100.36 810.23,1096.66 809.97,1094.06 809.02,1091.51 807.54,1087.97"/>
        <lane id=":1108139591_0_1" index="1" disallow="pedestrian tram rail_urban rail rail_electric rail_fast ship" speed="13.89" length="13.48" shape="809.65,1100.36 810.76,1096.49 811.62,1093.73 811.76,1091.03 810.71,1087.31"/>
    </edge>
    <edge id=":1108139591_2" function="internal">
        <lane id=":1108139591_2_0" index="0" disallow="pedestrian tram rail_urban rail rail_electric rail_fast ship" speed="13.89" length="13.41" shape="809.65,1100.36 810.70,1096.43 811.76,1093.85 813.08,1091.36 814.94,1087.72"/>
        <lane id=":1108139591_2_1" index="1" disallow="pedestrian tram rail_urban rail rail_electric rail_fast ship" speed="13.89" length="13.41" shape="812.77,1101.07 813.77,1097.35 814.79,1094.90 816.06,1092.55 817.83,1089.09"/>
    </edge>
    <edge id=":1108139591_w0" function="walkingarea">
        <lane id=":1108139591_w0_0" index="0" allow="pedestrian" speed="1.00" length="11.28" width="3.00" shape="805.85,1088.06 803.06,1089.15 805.16,1099.34 808.09,1100.00 808.53,1097.56 808.60,1095.72 808.34,1094.18 807.80,1092.67 807.02,1090.89"/>
    </edge>
    <edge id=":1202330429_0" function="internal">
        <lane id=":1202330429_0_0" index="0" disallow="pedestrian tram rail_urban rail rail_electric rail_fast ship" speed="3.65" length="4.67" shape="1726.52,758.79 1727.59,759.76 1727.86,760.61 1727.35,761.34 1726.04,761.95"/>
    </edge>
    <edge id=":1202330436_0" function="internal">
        <lane id=":1202330436_0_0" index="0" disallow="pedestrian tram rail_urban rail rail_electric rail_fast ship" speed="13.89" length="10.40" shape="1377.98,486.72 1375.00,476.76"/>
    </edge>
    <edge id=":1202330436_1" function="internal">
        <lane id=":1202330436_1_0" index="0" disallow="pedestrian tram rail_urban rail rail_electric rail_fast ship" speed="13.89" length="10.50" shape="1378.06,475.82 1381.07,485.87"/>
    </edge>
    <edge id=":1202330436_2" function="internal">
        <lane id=":1202330436_2_0" index="0" disallow="pedestrian tram rail_urban rail rail_electric rail_fast ship" speed="6.41" length="9.61" shape="1370.17,483.35 1372.92,482.52 1374.64,481.15 1375.33,479.23 1375.00,476.76"/>
    </edge>
    <edge id=":1202330436_3" function="internal">
        <lane id=":1202330436_3_0" index="0" disallow="pedestrian tram rail_urban rail rail_electric rail_fast ship" speed="7.71" length="12.09" shape="1370.17,483.35 1374.51,482.89 1377.77,483.16 1379.96,484.15 1381.07,485.87"/>
    </edge>
    <edge id=":1202330436_c0" function="crossing" crossingEdges="-1066387399#0 1066387399#0">
        <lane id=":1202330436_c0_0" index="0" allow="pedestrian" speed="1.00" length="6.40" width="4.00" shape="1382.08,483.52 1375.91,485.22"/>
    </edge>
    <edge id=":1202330436_c1" function="crossing" crossingEdges="1066387399#1 -1066387399#1">
        <lane id=":1202330436_c1_0" index="0" allow="pedestrian" speed="1.00" length="6.40" width="4.00" shape="1374.06,479.14 1380.18,477.26"/>
    </edge>
    <edge id=":1202330436_c2" function="crossing" crossingEdges="104203825">
        <lane id=":1202330436_c2_0" index="0" allow="pedestrian" speed="1.00" length="3.20" width="4.00" shape="1372.41,484.59 1371.87,481.44"/>
    </edge>
    <edge id=":1202330436_w0" function="walkingarea">
        <lane id=":1202330436_w0_0" index="0" allow="pedestrian" speed="1.00" length="3.71" width="4.00" shape="1370.43,484.93 1370.77,486.90 1373.55,487.94 1376.44,487.15 1376.04,486.23 1375.39,485.53 1374.51,485.05 1373.39,484.79 1372.03,484.75"/>
    </edge>
    <edge id=":1202330436_w1" function="walkingarea">
        <lane id=":1202330436_w1_0" index="0" allow="pedestrian" speed="1.00" length="6.59" width="4.00" shape="1381.55,481.59 1382.61,485.45 1385.50,484.65 1382.45,474.46 1379.59,475.34 1380.77,479.17"/>
    </edge>
    <edge id=":1202330436_w2" function="walkingarea">
        <lane id=":1202330436_w2_0" index="0" allow="pedestrian" speed="1.00" length="3.36" width="4.00" shape="1373.47,477.23 1370.61,478.11 1369.57,479.80 1369.90,481.77 1371.31,481.42 1372.40,480.91 1373.16,480.24 1373.59,479.40 1373.69,478.40"/>
    </edge>
    <edge id=":1202330475_0" function="internal">
        <lane id=":1202330475_0_0" index="0" disallow="pedestrian tram rail_urban rail rail_electric rail_fast ship" speed="3.65" length="4.67" shape="1175.63,389.60 1174.32,388.99 1173.81,388.26 1174.09,387.41 1175.15,386.44"/>
    </edge>
    <edge id=":1202330481_0" function="internal">
        <lane id=":1202330481_0_0" index="0" disallow="pedestrian tram rail_urban rail rail_electric rail_fast ship" speed="13.89" length="7.24" shape="1102.43,897.66 1109.67,897.85"/>
    </edge>
    <edge id=":1202330481_c0" function="crossing" crossingEdges="134121549#1">
        <lane id=":1202330481_c0_0" index="0" allow="pedestrian" speed="1.00" length="3.20" width="4.00" shape="1107.74,896.17 1107.61,899.37"/>
    </edge>
    <edge id=":1202330481_w0" function="walkingarea">
        <lane id=":1202330481_w0_0" index="0" allow="pedestrian" speed="1.00" length="4.83" width="4.00" shape="1102.47,899.26 1102.52,901.26 1109.52,901.45 1109.60,899.45 1105.61,899.28"/>
    </edge>
    <edge id=":1202330481_w1" function="walkingarea">
        <lane id=":1202330481_w1_0" index="0" allow="pedestrian" speed="1.00" length="4.77" width="4.00" shape="1105.74,896.09 1109.74,896.25 1109.82,894.25 1109.11,892.91 1107.40,891.86 1102.35,894.06 1102.39,896.06"/>
    </edge>
    <edge id=":1202330526_0" function="internal">
        <lane id=":1202330526_0_0" index="0" disallow="pedestrian tram rail_urban rail rail_electric rail_fast ship" speed="13.89" length="10.96" shape="1611.45,1104.40 1621.47,1108.85"/>
    </edge>
    <edge id=":1202330526_1" function="internal">
        <lane id=":1202330526_1_0" index="0" disallow="pedestrian tram rail_urban rail rail_electric rail_fast ship" speed="6.51" length="4.10" shape="1614.18,1111.73 1615.48,1109.67 1616.84,1108.71"/>
    </edge>
    <edge id=":1202330526_2" function="internal">
        <lane id=":1202330526_2_0" index="0" disallow="pedestrian tram rail_urban rail rail_electric rail_fast ship" speed="6.51" length="4.80" shape="1616.84,1108.71 1617.12,1108.50 1619.12,1108.23 1621.47,1108.85"/>
    </edge>
    <edge id=":1202330586_0" function="internal">
        <lane id=":1202330586_0_0" index="0" disallow="pedestrian tram rail_urban rail rail_electric rail_fast ship" speed="7.17" length="10.61" shape="1506.56,739.29 1503.91,737.30 1501.45,736.40 1499.20,736.60 1497.16,737.90"/>
    </edge>
    <edge id=":1202330586_1" function="internal">
        <lane id=":1202330586_1_0" index="0" disallow="pedestrian tram rail_urban rail rail_electric rail_fast ship" speed="8.68" length="16.92" shape="1505.66,722.31 1503.64,725.61 1503.48,729.15 1505.17,732.93 1508.73,736.94"/>
    </edge>
    <edge id=":1202330586_2" function="internal">
        <lane id=":1202330586_2_0" index="0" disallow="pedestrian tram rail_urban rail rail_electric rail_fast ship" speed="13.89" length="17.05" shape="1505.66,722.31 1494.95,735.58"/>
    </edge>
    <edge id=":1202330586_c0" function="crossing" crossingEdges="1066387397">
        <lane id=":1202330586_c0_0" index="0" allow="pedestrian" speed="1.00" length="6.40" width="4.00" shape="1499.71,737.69 1495.30,733.04"/>
    </edge>
    <edge id=":1202330586_w0" function="walkingarea">
        <lane id=":1202330586_w0_0" index="0" allow="pedestrian" speed="1.00" length="2.24" width="4.00" shape="1492.48,732.97 1493.85,734.42 1496.38,731.85 1498.06,729.79 1499.32,727.96 1500.54,726.11 1502.13,723.95"/>
    </edge>
    <edge id=":1202330586_w1" function="walkingarea">
        <lane id=":1202330586_w1_0" index="0" allow="pedestrian" speed="1.00" length="2.24" width="4.00" shape="1498.26,739.06 1499.63,740.51 1504.05,739.30 1502.71,738.51 1501.46,738.08 1500.31,738.04 1499.24,738.36"/>
    </edge>
    <edge id=":1202330597_w0" function="walkingarea">
        <lane id=":1202330597_w0_0" index="0" allow="pedestrian" speed="1.00" length="4.42" width="2.00" shape="1478.13,1536.92 1477.99,1534.93 1474.48,1533.01 1473.06,1534.43 1472.66,1535.82 1473.11,1537.77"/>
    </edge>
    <edge id=":1202330603_0" function="internal">
        <lane id=":1202330603_0_0" index="0" disallow="pedestrian tram rail_urban rail rail_electric rail_fast ship" speed="8.33" length="8.96" shape="1139.49,797.67 1142.06,798.32 1143.82,798.80 1145.55,799.36 1148.04,800.30"/>
    </edge>
    <edge id=":1202330603_1" function="internal">
        <lane id=":1202330603_1_0" index="0" disallow="pedestrian tram rail_urban rail rail_electric rail_fast ship" speed="7.45" length="8.06" shape="1140.81,802.76 1142.73,801.20 1144.58,800.27 1146.35,799.97 1148.04,800.30"/>
    </edge>
    <edge id=":1202330628_0" function="internal">
        <lane id=":1202330628_0_0" index="0" disallow="pedestrian tram rail_urban rail rail_electric rail_fast ship" speed="13.89" length="6.68" shape="1431.41,680.36 1429.59,673.93"/>
    </edge>
    <edge id=":1202330628_1" function="internal">
        <lane id=":1202330628_1_0" index="0" disallow="pedestrian tram rail_urban rail rail_electric rail_fast ship" speed="7.30" length="1.44" shape="1431.41,680.36 1431.64,679.05 1431.72,678.98"/>
    </edge>
    <edge id=":1202330628_4" function="internal">
        <lane id=":1202330628_4_0" index="0" disallow="pedestrian tram rail_urban rail rail_electric rail_fast ship" speed="7.30" length="9.23" shape="1431.72,678.98 1433.07,677.59 1435.69,675.97 1439.51,674.20"/>
    </edge>
    <edge id=":1202330628_2" function="internal">
        <lane id=":1202330628_2_0" index="0" disallow="pedestrian tram rail_urban rail rail_electric rail_fast ship" speed="5.90" length="7.94" shape="1432.68,673.08 1433.47,674.49 1434.88,675.15 1436.89,675.05 1439.51,674.20"/>
    </edge>
    <edge id=":1202330628_3" function="internal">
        <lane id=":1202330628_3_0" index="0" disallow="pedestrian tram rail_urban rail rail_electric rail_fast ship" speed="13.89" length="6.63" shape="1432.68,673.08 1434.48,679.46"/>
    </edge>
    <edge id=":1202330628_c0" function="crossing" crossingEdges="1066387399#0 -1066387399#0">
        <lane id=":1202330628_c0_0" index="0" allow="pedestrian" speed="1.00" length="6.40" width="4.00" shape="1428.58,676.29 1434.75,674.58"/>
    </edge>
    <edge id=":1202330628_w0" function="walkingarea">
        <lane id=":1202330628_w0_0" index="0" allow="pedestrian" speed="1.00" length="2.50" width="4.00" shape="1437.11,671.86 1434.22,672.66 1434.49,673.16 1434.96,673.47 1435.64,673.58 1436.52,673.49 1437.60,673.21"/>
    </edge>
    <edge id=":1202330628_w1" function="walkingarea">
        <lane id=":1202330628_w1_0" index="0" allow="pedestrian" speed="1.00" length="2.50" width="4.00" shape="1429.11,678.21 1428.05,674.36 1425.16,675.16"/>
    </edge>
    <edge id=":1202330650_0" function="internal">
        <lane id=":1202330650_0_0" index="0" disallow="pedestrian tram rail_urban rail rail_electric rail_fast ship" speed="7.95" length="11.86" shape="1082.85,788.31 1078.78,788.29 1075.69,788.90 1073.59,790.16 1072.48,792.05"/>
    </edge>
    <edge id=":1202330666_w0" function="walkingarea">
        <lane id=":1202330666_w0_0" index="0" allow="pedestrian" speed="1.00" length="5.48" width="2.00" shape="1348.79,1405.14 1347.11,1404.04 1341.99,1407.77 1342.98,1409.50 1343.53,1410.06 1345.27,1411.06"/>
    </edge>
    <edge id=":1202330683_w0" function="walkingarea">
        <lane id=":1202330683_w0_0" index="0" allow="pedestrian" speed="1.00" length="4.29" width="2.00" shape="1126.22,867.23 1127.83,866.04 1124.98,861.89 1123.28,862.94 1122.85,866.31 1124.58,867.32"/>
    </edge>
    <edge id=":1202330687_0" function="internal">
        <lane id=":1202330687_0_0" index="0" disallow="pedestrian tram rail_urban rail rail_electric rail_fast ship" speed="8.24" length="5.66" shape="1276.99,501.09 1278.03,499.80 1278.93,499.04 1280.02,498.61 1281.64,498.28"/>
    </edge>
    <edge id=":1202330687_c0" function="crossing" crossingEdges="104203825">
        <lane id=":1202330687_c0_0" index="0" allow="pedestrian" speed="1.00" length="3.20" width="4.00" shape="1279.40,497.04 1279.94,500.19"/>
    </edge>
    <edge id=":1202330687_w0" function="walkingarea">
        <lane id=":1202330687_w0_0" index="0" allow="pedestrian" speed="1.00" length="2.80" width="4.00" shape="1278.26,502.06 1279.85,503.27 1282.24,501.83 1281.91,499.86 1281.00,500.03 1280.32,500.21 1279.78,500.46 1279.31,500.82 1278.83,501.33"/>
    </edge>
    <edge id=":1202330687_w1" function="walkingarea">
        <lane id=":1202330687_w1_0" index="0" allow="pedestrian" speed="1.00" length="4.89" width="4.00" shape="1281.38,496.70 1281.04,494.73 1276.78,494.06 1275.11,495.16 1274.13,498.90 1275.72,500.12 1276.61,498.99 1277.35,498.19 1278.08,497.63 1278.91,497.25 1279.96,496.97"/>
    </edge>
    <edge id=":1202330740_0" function="internal">
        <lane id=":1202330740_0_0" index="0" disallow="pedestrian tram rail_urban rail rail_electric rail_fast ship" speed="13.89" length="11.23" shape="1623.37,1109.64 1633.67,1114.11"/>
    </edge>
    <edge id=":1202330740_1" function="internal">
        <lane id=":1202330740_1_0" index="0" disallow="pedestrian tram rail_urban rail rail_electric rail_fast ship" speed="6.43" length="9.03" shape="1623.37,1109.64 1625.50,1110.93 1626.68,1112.57 1626.92,1114.59 1626.20,1116.97"/>
    </edge>
    <edge id=":1202330811_w0" function="walkingarea">
        <lane id=":1202330811_w0_0" index="0" allow="pedestrian" speed="1.00" length="5.20" width="2.00" shape="1641.32,865.98 1640.70,867.88 1642.96,861.04 1642.33,862.94"/>
    </edge>
    <edge id=":1202330820_w0" function="walkingarea">
        <lane id=":1202330820_w0_0" index="0" allow="pedestrian" speed="1.00" length="4.56" width="2.00" shape="1460.23,1519.39 1461.88,1518.26 1458.75,1513.69 1457.10,1514.83 1457.02,1518.98 1458.93,1519.59"/>
    </edge>
    <edge id=":1202330868_w0" function="walkingarea">
        <lane id=":1202330868_w0_0" index="0" allow="pedestrian" speed="1.00" length="4.66" width="2.00" shape="1324.97,1446.33 1326.74,1445.40 1326.40,1440.60 1324.41,1440.39 1323.27,1440.75 1321.76,1442.07"/>
    </edge>
    <edge id=":1202330893_0" function="internal">
        <lane id=":1202330893_0_0" index="0" disallow="pedestrian tram rail_urban rail rail_electric rail_fast ship" speed="8.56" length="10.59" shape="1222.89,379.18 1217.15,380.84 1213.19,382.77 1213.05,382.92"/>
    </edge>
    <edge id=":1202330893_1" function="internal">
        <lane id=":1202330893_1_0" index="0" disallow="pedestrian tram rail_urban rail rail_electric rail_fast ship" speed="13.89" length="18.93" shape="1222.89,379.18 1218.73,380.49 1213.96,382.34 1209.18,384.13 1204.98,385.22"/>
    </edge>
    <edge id=":1202330893_3" function="internal">
        <lane id=":1202330893_3_0" index="0" disallow="pedestrian tram rail_urban rail rail_electric rail_fast ship" speed="8.56" length="5.40" shape="1213.05,382.92 1211.02,384.98 1210.64,387.46"/>
    </edge>
    <edge id=":1202330893_2" function="internal">
        <lane id=":1202330893_2_0" index="0" disallow="pedestrian tram rail_urban rail rail_electric rail_fast ship" speed="6.66" length="2.24" shape="1204.50,382.06 1206.74,382.12"/>
    </edge>
    <edge id=":1202330893_4" function="internal">
        <lane id=":1202330893_4_0" index="0" disallow="pedestrian tram rail_urban rail rail_electric rail_fast ship" speed="6.66" length="6.97" shape="1206.74,382.12 1208.51,383.04 1209.81,384.82 1210.64,387.46"/>
    </edge>
    <edge id=":1202330893_c0" function="crossing" crossingEdges="104203853#0">
        <lane id=":1202330893_c0_0" index="0" allow="pedestrian" speed="1.00" length="3.20" width="4.00" shape="1211.83,385.19 1208.69,385.80"/>
    </edge>
    <edge id=":1202330893_w0" function="walkingarea">
        <lane id=":1202330893_w0_0" index="0" allow="pedestrian" speed="1.00" length="2.24" width="4.00" shape="1207.11,388.15 1209.07,387.77 1208.88,387.32 1208.51,387.00 1207.96,386.78 1207.23,386.68 1206.31,386.69"/>
    </edge>
    <edge id=":1202330893_w1" function="walkingarea">
        <lane id=":1202330893_w1_0" index="0" allow="pedestrian" speed="1.00" length="2.24" width="4.00" shape="1212.21,387.16 1214.17,386.78 1219.67,381.66 1216.79,382.65 1214.61,383.69 1213.12,384.79 1212.32,385.94"/>
    </edge>
    <edge id=":1202330922_0" function="internal">
        <lane id=":1202330922_0_0" index="0" disallow="pedestrian tram rail_urban rail rail_electric rail_fast ship" speed="13.89" length="13.87" shape="1557.94,774.55 1555.61,777.26 1553.50,779.87 1551.46,782.54 1549.39,785.45"/>
    </edge>
    <edge id=":1202330922_1" function="internal">
        <lane id=":1202330922_1_0" index="0" disallow="pedestrian tram rail_urban rail rail_electric rail_fast ship" speed="7.96" length="3.93" shape="1557.94,774.55 1554.96,777.10"/>
    </edge>
    <edge id=":1202330922_6" function="internal">
        <lane id=":1202330922_6_0" index="0" disallow="pedestrian tram rail_urban rail rail_electric rail_fast ship" speed="7.96" length="10.35" shape="1554.96,777.10 1551.89,778.06 1548.74,777.43 1545.51,775.21"/>
    </edge>
    <edge id=":1202330922_2" function="internal">
        <lane id=":1202330922_2_0" index="0" disallow="pedestrian tram rail_urban rail rail_electric rail_fast ship" speed="6.45" length="9.03" shape="1547.67,772.85 1549.72,774.26 1551.71,774.66 1553.65,774.05 1555.54,772.44"/>
    </edge>
    <edge id=":1202330922_3" function="internal">
        <lane id=":1202330922_3_0" index="0" disallow="pedestrian tram rail_urban rail rail_electric rail_fast ship" speed="8.40" length="14.09" shape="1547.67,772.85 1550.17,775.84 1551.29,778.94 1551.03,782.14 1549.39,785.45"/>
    </edge>
    <edge id=":1202330922_4" function="internal">
        <lane id=":1202330922_4_0" index="0" disallow="pedestrian tram rail_urban rail rail_electric rail_fast ship" speed="6.98" length="9.43" shape="1546.76,783.63 1547.83,781.44 1547.98,779.31 1547.20,777.23 1545.51,775.21"/>
    </edge>
    <edge id=":1202330922_5" function="internal">
        <lane id=":1202330922_5_0" index="0" disallow="pedestrian tram rail_urban rail rail_electric rail_fast ship" speed="13.89" length="14.23" shape="1546.76,783.63 1548.87,780.67 1550.98,777.90 1553.18,775.19 1555.54,772.44"/>
    </edge>
    <edge id=":1202330966_0" function="internal">
        <lane id=":1202330966_0_0" index="0" disallow="pedestrian tram rail_urban rail rail_electric rail_fast ship" speed="6.21" length="6.28" shape="1226.67,1132.06 1223.64,1131.56 1221.56,1132.25 1221.04,1133.12"/>
    </edge>
    <edge id=":1202330966_3" function="internal">
        <lane id=":1202330966_3_0" index="0" disallow="pedestrian tram rail_urban rail rail_electric rail_fast ship" speed="6.21" length="4.25" shape="1221.04,1133.12 1220.44,1134.13 1220.28,1137.20"/>
    </edge>
    <edge id=":1202330966_1" function="internal">
        <lane id=":1202330966_1_0" index="0" disallow="pedestrian tram rail_urban rail rail_electric rail_fast ship" speed="8.29" length="11.63" shape="1219.38,1121.84 1219.91,1124.01 1221.47,1125.93 1224.04,1127.60 1227.63,1129.01"/>
    </edge>
    <edge id=":1202330966_2" function="internal">
        <lane id=":1202330966_2_0" index="0" disallow="pedestrian tram rail_urban rail rail_electric rail_fast ship" speed="13.89" length="15.39" shape="1219.38,1121.84 1220.28,1137.20"/>
    </edge>
    <edge id=":1202330966_c0" function="crossing" crossingEdges="1066387383">
        <lane id=":1202330966_c0_0" index="0" allow="pedestrian" speed="1.00" length="3.20" width="4.00" shape="1221.70,1135.07 1218.51,1135.35"/>
    </edge>
    <edge id=":1202330966_c1" function="crossing" crossingEdges="-104203780#1 104203780#1">