<?xml version="1.0" ?>
<!-- Generated by MOSAIC scenario-convert 22.0 -->
<routes>
	<vType id="default" length="7.5" maxSpeed="50" minGap="2.0" carFollowModel="Krauss" accel="0.80" decel="4.5" sigma="0.5" tau="1"/>
	<route id="22" edges="-1118885056 40284974 1118930503#0 1118930503#1 339161587#1 339161587#2 32501230 32501217 1066387382#0 135000604#0 135000604#1 520907938 1066387385 24267063#0 -1066387390 -303127234 1067225801 135530868 161870606 1122672886 1117123985 1078551359 520281211#0 520281211#1 1067179855 1066387399#0 1066387399#1 1066387399#3" />
	<route id="23" edges="-1118885056 -1118930502 -211570877 116139661 521369419 521369418 521369416#0 521369416#1 303409704#0 303409704#1 303409704#2 303409704#3 521369415 525352728 1067179856#0 1067232685#0 518870782#0 518870782#1 24267075 24267081 161870607#1 518870780 -1067179852 -1067179853#2 -1067179853#0 -450682081#1 -450682081#0 -161870608 24267088 1123366647 1117123985 1078551359 520281211#0 520281211#1 1067179855 1066387399#0 1066387399#1 1066387399#3" />
	<route id="24" edges="-1118885056 40284974 1118930503#0 1118930503#1 339161587#1 339161587#2 32501230 32501217 1066387382#0 135000604#0 135000604#1 520907938 1066387385 24267063#0 32501129#0 32501129#1 104203815 135000899 520907937 -1118885051#1 -1118885051#0 -1118885052#1 -1118885052#0" />
	<route id="25" edges="-1118885056 -1118930502 -211570877 116139661 521369419 521369418 521369416#0 521369416#1 303409704#0 303409704#1 303409704#2 303409704#3 521369415 525352728 1067179856#0 1067232685#0 518870782#0 518870782#1 24267075 24267081 161870607#1 518870780 -1067179852 -1067179853#2 -1067179853#0 -450682081#1 -450682081#0 -161870608 24267088 1123366647 1117123985 1078551359 303127223 450682083 24267065 303127234 1066387390 32501129#0 32501129#1 104203815 135000899 520907937 -1118885051#1 -1118885051#0 -1118885052#1 -1118885052#0" />
	<route id="26" edges="24267008 157520966#1 157520966#2 157520966#4 1067232685#0 518870782#0 518870782#1 24267075 24267081 161870607#1 518870780 -1067179852 -1067179853#2 -1067179853#0 -450682081#1 -450682081#0 -161870608 24267088 1123366647 1117123985 1078551359 520281211#0 520281211#1 1067179855 1066387399#0 1066387399#1 1066387399#3" />
	<route id="27" edges="1118885052#0 1118885052#1 1118885051#0 1118885051#1 25329248 1066387386 1066387389 -135000604#1 -135000604#0 -1066387382#0 -32501217 -32501230 1118881988 525352730 40284971 1118881989" />
	<route id="10" edges="24267008 157520966#1 157520966#2 157520966#4 1067232685#0 518870782#0 518870782#1 24267075 24267081 161870607#1 518870780 -1067179852 -1067179853#2 -1067179853#0 -450682081#1 -450682081#0 -161870608 24267088 1123366647 1117123985 1078551359 303127223 450682083 24267065 303127234 1066387390 32501129#0 32501129#1 104203815 135000899 520907937 -1118885051#1 -1118885051#0 -1118885052#1 -1118885052#0" />
	<route id="11" edges="24267008 157520966#1 157520966#2 157520966#4 1117159562#0 1067232684 1117159561 41779467 608022305 27610322 521369420#0 1118930502 1118885056" />
	<route id="12" edges="24267008 157520966#1 157520966#2 24267178 211816963#0 1110251952#0 521377145 303127225 -1118885077 -41779480 1118930500#0 1118930500#1 41779481 1118885066 1118885067 1118885068 1118885070#0" />
	<route id="13" edges="24267008 157520966#1 157520966#2 157520966#4 1117159562#0 1067232684 1117159561 41779467 608022305 521369417 521369419 186466799 20899781 1118885065 1118885066 1118885067 1118885068 1118885070#0" />
	<route id="14" edges="-1118885070#1 -1118885068 -1118885067 -1118885066 -1118885065 -20899781 186466797 521369416#0 303409700 27610322 521369420#0 -1118885049 134395934 339161587#1 339161587#2 32501230 32501217 1066387382#0 135000604#0 135000604#1 520907938 1066387385 24267063#0 32501129#0 32501129#1 104203815 135000899 520907937 -1118885051#1 -1118885051#0 -1118885052#1 -1118885052#0" />
	<route id="15" edges="-1118885070#1 -1118885068 -1118885067 -1118885066 -1118885065 -20899781 186466797 521369416#0 521369416#1 303409704#0 303409704#1 303409704#2 303409704#3 521369415 525352728 1067179856#0 1067232685#0 518870782#0 518870782#1 24267075 24267081 161870607#1 518870780 -1067179852 -1067179853#2 -1067179853#0 -450682081#1 -450682081#0 -161870608 24267088 1123366647 1117123985 1078551359 303127223 450682083 24267065 303127234 1066387390 32501129#0 32501129#1 104203815 135000899 520907937 -1118885051#1 -1118885051#0 -1118885052#1 -1118885052#0" />
	<route id="16" edges="-1118885070#1 -1118885068 -1118885067 -1118885066 -1118885065 -20899781 186466797 521369416#0 303409700 27610322 521369420#0 1118930502 1118885056" />
	<route id="17" edges="-1118885070#1 24267161 24267164 1118930501 41779480 1118885077 186466821 521377147 521377146#0 521377146#1 1117129344 521377144 24266991 1117129348 1117129347 1117129345#0 1117129345#1 24266978 518870784" />
	<route id="18" edges="-1118885070#1 -1118885068 -1118885067 -1118885066 -1118885065 -20899781 186466797 521369416#0 521369416#1 303409704#0 303409704#1 303409704#2 303409704#3 521369415 525352728 1067179856#0 1067232685#0 518870782#0 518870782#1 24267075 24267081 161870607#1 518870780 -1067179852 -1067179853#2 -1067179853#0 -450682081#1 -450682081#0 -161870608 24267088 1123366647 1117123985 1078551359 520281211#0 520281211#1 1067179855 1066387399#0 1066387399#1 1066387399#3" />
	<route id="19" edges="-1118885056 -1118930502 -211570877 116139661 521369419 186466799 20899781 1118885065 1118885066 1118885067 1118885068 1118885070#0" />
	<route id="1" edges="1118885052#0 1118885052#1 1118885051#0 1118885051#1 25329248 1066387386 1066387389 -135000604#1 -135000604#0 -1066387382#0 -32501217 -32501230 1118881988 525352730 40284971 -116139659 116139663 1118885048#0 -1118885048#2 310206045 1118885084 134394992 303127243 1118885081 41779467 608022305 27610322 521369420#0 1118930502 1118885056" />
	<route id="2" edges="1118885052#0 1118885052#1 1118885051#0 1118885051#1 25329248 1066387386 1066387389 520907938 1066387385 24267063#0 -1066387390 -303127234 1067225801 135530868 161870606 1122672886 -1123366647 161863239 104203857#0 104203857#1 1123714556 450682080 41736416#1 41736416#2 525352735 608022302 41779466 608022304 24267056#0 24267056#1 1117159562#0 1067232684 1117159561 41779467 608022305 27610322 521369420#0 1118930502 1118885056" />
	<route id="3" edges="1118885052#0 1118885052#1 1118885051#0 1118885051#1 25329248 1066387386 1066387389 520907938 1066387385 24267063#0 -1066387390 -303127234 1067225801 135530868 161870606 1122672886 -1123366647 161863239 104203857#0 104203857#1 1123714556 450682080 41736416#1 41736416#2 525352735 608022302 41779466 608022304 24267056#0 24267056#1 1117159562#0 1067232684 1117159561 41779467 608022305 521369417 521369419 186466799 20899781 1118885065 1118885066 1118885067 1118885068 1118885070#0" />
	<route id="4" edges="1118885052#0 1118885052#1 1118885051#0 1118885051#1 25329248 1066387386 1066387389 520907938 1066387385 24267063#0 -1066387390 -303127234 1067225801 135530868 161870606 1122672886 1117123985 1078551359 520281211#0 520281211#1 1067179855 1066387399#0 1066387399#1 1066387399#3" />
	<route id="5" edges="1118885052#0 1118885052#1 1118885051#0 1118885051#1 25329248 1066387386 1066387389 520907938 1066387385 24267063#0 -1066387390 -303127234 1067225801 135530868 161870606 1122672886 -1123366647 161863239 104203857#0 104203857#1 1123714556 450682080 41736416#1 41736416#2 525352735 608022302 41779466 608022304 24267056#0 24267056#1 1117159562#0 1067232684 525352729 521369415 521369414 1110251952#0 521377145 1117129342 521377147 521377146#0 521377146#1 1117129344 521377144 24266991 1117129348 1117129347 1117129345#0 1117129345#1 24266978" />
	<route id="6" edges="-1066387399#3 -1066387399#1 -1066387399#0 -1067179855 1066387398 24267122#0 24267122#1 450682083 24267065 303127234 1066387390 32501129#0 32501129#1 104203815 135000899 520907937 -1118885051#1 -1118885051#0 -1118885052#1 -1118885052#0" />
	<route id="7" edges="-1066387399#3 -1066387399#1 -1066387399#0 -1067179855 1066387398 24267122#0 24267122#1 450682083 520281210 135530868 161870606 1122672886 -1123366647 161863239 104203857#0 104203857#1 1123714556 450682080 41736416#1 41736416#2 525352735 608022302 41779466 608022304 41779473#0 41779473#1 41779473#2 1118885084 134394992 303127243 1118885081 41779467 608022305 27610322 521369420#0 1118930502 1118885056" />
	<route id="8" edges="-1066387399#3 -1066387399#1 -1066387399#0 -1067179855 1066387398 24267122#0 24267122#1 450682083 520281210 135530868 161870606 1122672886 -1123366647 161863239 104203857#0 104203857#1 1123714556 450682080 41736416#1 41736416#2 525352735 608022302 41779466 608022304 24267056#0 24267056#1 1117159562#0 1067232684 1117159561 41779467 608022305 27610322 521369420#0 1118930502 1118885056" />
	<route id="9" edges="-1066387399#3 -1066387399#1 -1066387399#0 -1067179855 1066387398 24267122#0 24267122#1 450682083 520281210 135530868 161870606 1122672886 -1123366647 161863239 104203857#0 104203857#1 1123714556 450682080 41736416#1 41736416#2 525352735 608022302 41779466 608022304 24267056#0 24267056#1 1117159562#0 1067232684 525352729 521369415 521369414 1110251952#0 521377145 1117129342 521377147 521377146#0 521377146#1 1117129344 521377144 24266991 1117129348 1117129347 1117129345#0 1117129345#1 24266978 518870784" />
	<route id="20" edges="-1118885056 -1118930502 -211570877 116139661 521369419 186466799 20899781 1118885065 1118885066 1118885067 1118885068 24267161 24267164 1118930501 41779480 1118885077 186466821 521377147 521377146#0 521377146#1 1117129344 521377144 24266991 1117129348 1117129347 1117129345#0 1117129345#1 24266978 518870784" />
	<route id="21" edges="-1118885056 -1118930502 -211570877 116139661 521369419 521369418 521369416#0 521369416#1 303409704#0 303409704#1 303409704#2 303409704#3 521369415 521369414 1110251952#0 521377145 1117129342 521377147 521377146#0 521377146#1 1117129344 521377144 24266991 1117129348 1117129347 1117129345#0 1117129345#1 24266978 518870784" />
</routes>