<?xml version="1.0" encoding="UTF-8"?>

<!-- generated on 2022-12-02 16:42:15 by Eclipse SUMO netconvert Version 1.14.0
<configuration xmlns:xsi="http://www.w3.org/2001/XMLSchema-instance" xsi:noNamespaceSchemaLocation="http://sumo.dlr.de/xsd/netconvertConfiguration.xsd">

    <input>
        <type-files value="C:\Program%20Files%20(x86)\Eclipse\Sumo\data\typemap\osmNetconvert.typ.xml,C:\Program%20Files%20(x86)\Eclipse\Sumo\data\typemap\osmNetconvertUrbanDe.typ.xml,C:\Program%20Files%20(x86)\Eclipse\Sumo\data\typemap\osmNetconvertPedestrians.typ.xml"/>
        <osm-files value="osm_bbox.osm.xml.gz"/>
    </input>

    <output>
        <output-file value="osm.net.xml"/>
        <output.street-names value="true"/>
        <output.original-names value="true"/>
    </output>

    <projection>
        <proj.utm value="true"/>
    </projection>

    <processing>
        <geometry.remove value="true"/>
        <roundabouts.guess value="true"/>
    </processing>

    <tls_building>
        <tls.discard-simple value="true"/>
        <tls.join value="true"/>
        <tls.guess-signals value="true"/>
        <tls.default-type value="actuated"/>
    </tls_building>

    <ramp_guessing>
        <ramps.guess value="true"/>
    </ramp_guessing>

    <junctions>
        <junctions.join value="true"/>
        <junctions.corner-detail value="5"/>
    </junctions>

    <pedestrian>
        <crossings.guess value="true"/>
    </pedestrian>

    <formats>
        <osm.sidewalks value="true"/>
    </formats>

    <report>
        <verbose value="true"/>
    </report>

</configuration>
-->

<net version="1.9" junctionCornerDetail="5" walkingareas="true" limitTurnSpeed="5.50" xmlns:xsi="http://www.w3.org/2001/XMLSchema-instance" xsi:noNamespaceSchemaLocation="http://sumo.dlr.de/xsd/net_file.xsd">

    <location netOffset="-557858.69,-4587217.45" convBoundary="0.00,0.00,1853.95,1901.48" origBoundary="-8.307370,41.434351,-8.285148,41.451470" projParameter="+proj=utm +zone=29 +ellps=WGS84 +datum=WGS84 +units=m +no_defs"/>

    <type id="highway.bridleway" priority="1" numLanes="1" speed="2.78" allow="pedestrian" oneway="1" width="2.00"/>
    <type id="highway.bus_guideway" priority="1" numLanes="1" speed="13.89" allow="bus" oneway="1"/>
    <type id="highway.cycleway" priority="1" numLanes="1" speed="5.56" allow="bicycle" oneway="0" width="1.00"/>
    <type id="highway.footway" priority="1" numLanes="1" speed="2.78" allow="pedestrian" oneway="1" width="2.00"/>
    <type id="highway.ford" priority="1" numLanes="1" speed="2.78" allow="army" oneway="0"/>
    <type id="highway.living_street" priority="2" numLanes="1" speed="2.78" disallow="tram rail_urban rail rail_electric rail_fast ship" oneway="0"/>
    <type id="highway.motorway" priority="14" numLanes="2" speed="27.78" allow="private emergency authority army vip passenger hov taxi bus coach delivery truck trailer motorcycle evehicle custom1 custom2" oneway="1"/>
    <type id="highway.motorway_link" priority="9" numLanes="1" speed="16.67" allow="private emergency authority army vip passenger hov taxi bus coach delivery truck trailer motorcycle evehicle custom1 custom2" oneway="1"/>
    <type id="highway.path" priority="1" numLanes="1" speed="5.56" allow="pedestrian bicycle" oneway="0" width="2.00"/>
    <type id="highway.pedestrian" priority="1" numLanes="1" speed="2.78" allow="pedestrian" oneway="1" width="2.00"/>
    <type id="highway.primary" priority="12" numLanes="2" speed="13.89" disallow="pedestrian tram rail_urban rail rail_electric rail_fast ship" oneway="0" sidewalkWidth="3.00"/>
    <type id="highway.primary_link" priority="7" numLanes="1" speed="13.89" disallow="pedestrian tram rail_urban rail rail_electric rail_fast ship" oneway="0" sidewalkWidth="3.00"/>
    <type id="highway.raceway" priority="15" numLanes="2" speed="83.33" allow="vip" oneway="0"/>
    <type id="highway.residential" priority="3" numLanes="1" speed="13.89" disallow="pedestrian tram rail_urban rail rail_electric rail_fast ship" oneway="0" sidewalkWidth="2.00"/>
    <type id="highway.secondary" priority="11" numLanes="1" speed="13.89" disallow="pedestrian tram rail_urban rail rail_electric rail_fast ship" oneway="0" sidewalkWidth="3.00"/>
    <type id="highway.secondary_link" priority="6" numLanes="1" speed="13.89" disallow="pedestrian tram rail_urban rail rail_electric rail_fast ship" oneway="0" sidewalkWidth="3.00"/>
    <type id="highway.service" priority="1" numLanes="1" speed="5.56" allow="pedestrian delivery bicycle" oneway="0"/>
    <type id="highway.stairs" priority="1" numLanes="1" speed="1.39" allow="pedestrian" oneway="1" width="2.00"/>
    <type id="highway.step" priority="1" numLanes="1" speed="1.39" allow="pedestrian" oneway="1" width="2.00"/>
    <type id="highway.steps" priority="1" numLanes="1" speed="1.39" allow="pedestrian" oneway="1" width="2.00"/>
    <type id="highway.tertiary" priority="10" numLanes="1" speed="13.89" disallow="pedestrian tram rail_urban rail rail_electric rail_fast ship" oneway="0" sidewalkWidth="3.00"/>
    <type id="highway.tertiary_link" priority="5" numLanes="1" speed="13.89" disallow="pedestrian tram rail_urban rail rail_electric rail_fast ship" oneway="0" sidewalkWidth="2.00"/>
    <type id="highway.track" priority="1" numLanes="1" speed="5.56" allow="pedestrian motorcycle moped bicycle" oneway="0"/>
    <type id="highway.trunk" priority="13" numLanes="2" speed="13.89" disallow="pedestrian bicycle tram rail_urban rail rail_electric rail_fast ship" oneway="0"/>
    <type id="highway.trunk_link" priority="8" numLanes="1" speed="13.89" disallow="pedestrian bicycle tram rail_urban rail rail_electric rail_fast ship" oneway="0"/>
    <type id="highway.unclassified" priority="4" numLanes="1" speed="13.89" disallow="pedestrian tram rail_urban rail rail_electric rail_fast ship" oneway="0" sidewalkWidth="2.00"/>
    <type id="highway.unsurfaced" priority="1" numLanes="1" speed="8.33" disallow="tram rail_urban rail rail_electric rail_fast ship" oneway="0"/>
    <type id="railway.highspeed" priority="21" numLanes="1" speed="69.44" allow="rail_fast" oneway="1"/>
    <type id="railway.light_rail" priority="19" numLanes="1" speed="27.78" allow="rail_urban" oneway="1"/>
    <type id="railway.preserved" priority="16" numLanes="1" speed="27.78" allow="rail" oneway="1"/>
    <type id="railway.rail" priority="20" numLanes="1" speed="44.44" allow="rail" oneway="1"/>
    <type id="railway.subway" priority="18" numLanes="1" speed="27.78" allow="rail_urban" oneway="1"/>
    <type id="railway.tram" priority="17" numLanes="1" speed="13.89" allow="tram" oneway="1"/>

    <edge id=":10124418145_0" function="internal">
        <lane id=":10124418145_0_0" index="0" allow="pedestrian delivery bicycle" speed="3.65" length="4.67" shape="1269.14,382.61 1270.52,383.01 1271.15,383.66 1271.00,384.54 1270.10,385.66"/>
    </edge>
    <edge id=":10124418157_0" function="internal">
        <lane id=":10124418157_0_0" index="0" allow="delivery bicycle" speed="6.09" length="7.10" shape="1219.15,401.70 1216.81,402.61 1215.22,403.64 1214.37,404.79 1214.26,406.06"/>
    </edge>
    <edge id=":10124418157_1" function="internal">
        <lane id=":10124418157_1_0" index="0" allow="pedestrian delivery bicycle" speed="3.65" length="4.67" shape="1219.15,401.70 1217.76,401.30 1217.14,400.66 1217.28,399.77 1218.18,398.65"/>
    </edge>
    <edge id=":10124418157_2" function="internal">
        <lane id=":10124418157_2_0" index="0" allow="delivery bicycle" speed="5.59" length="6.95" shape="1212.45,396.79 1213.06,398.20 1214.22,398.98 1215.93,399.13 1218.18,398.65"/>
    </edge>
    <edge id=":10124418157_3" function="internal">
        <lane id=":10124418157_3_0" index="0" disallow="pedestrian tram rail_urban rail rail_electric rail_fast ship" speed="13.89" length="9.44" shape="1212.45,396.79 1214.26,406.06"/>
    </edge>
    <edge id=":10124418157_c0" function="crossing" crossingEdges="104203853#1">
        <lane id=":10124418157_c0_0" index="0" allow="pedestrian" speed="1.00" length="3.20" width="4.00" shape="1215.45,403.79 1212.30,404.40"/>
    </edge>
    <edge id=":10124418157_w0" function="walkingarea">
        <lane id=":10124418157_w0_0" index="0" allow="pedestrian" speed="1.00" length="6.40" width="4.00" shape="1210.88,397.09 1208.92,397.48 1210.72,406.74 1212.69,406.36 1211.92,402.44"/>
    </edge>
    <edge id=":10124418157_w1" function="walkingarea">
        <lane id=":10124418157_w1_0" index="0" allow="pedestrian" speed="1.00" length="5.48" width="4.00" shape="1215.06,401.82 1215.83,405.75 1217.79,405.37 1219.63,403.23 1218.67,400.18 1218.67,400.18 1217.70,397.12 1215.99,396.10 1214.02,396.48"/>
    </edge>
    <edge id=":10124664526_w0" function="walkingarea">
        <lane id=":10124664526_w0_0" index="0" allow="pedestrian" speed="1.00" length="4.47" width="2.00" shape="1243.65,500.63 1243.22,498.67 1241.88,497.50 1239.89,497.33 1237.82,499.59 1238.06,501.58 1239.42,502.89 1241.42,503.06"/>
    </edge>
    <edge id=":10217234860_0" function="internal">
        <lane id=":10217234860_0_0" index="0" disallow="pedestrian tram rail_urban rail rail_electric rail_fast ship" speed="13.89" length="3.52" shape="858.70,1059.43 858.07,1060.19 857.34,1060.46 856.61,1060.73 855.98,1061.48"/>
    </edge>
    <edge id=":10217234860_c0" function="crossing" crossingEdges="1117159562#0">
        <lane id=":10217234860_c0_0" index="0" allow="pedestrian" speed="1.00" length="3.20" width="4.00" shape="856.40,1060.57 859.30,1061.92"/>
    </edge>
    <edge id=":10217234860_w0" function="walkingarea">
        <lane id=":10217234860_w0_0" index="0" allow="pedestrian" speed="1.00" length="2.30" width="4.00" shape="857.43,1062.15 860.16,1063.41 862.87,1061.38 860.15,1060.11 859.75,1060.69 859.28,1060.98 858.79,1061.13 858.29,1061.28 857.83,1061.58"/>
    </edge>
    <edge id=":10217234860_w1" function="walkingarea">
        <lane id=":10217234860_w1_0" index="0" allow="pedestrian" speed="1.00" length="2.50" width="4.00" shape="857.25,1058.76 854.53,1057.49 854.93,1060.23 855.39,1059.94 855.89,1059.78 856.38,1059.63 856.85,1059.34"/>
    </edge>
    <edge id=":1108139591_0" function="internal">
        <lane id=":1108139591_0_0" index="0" disallow="pedestrian tram rail_urban rail rail_electric rail_fast ship" speed="13.89" length="12.94" shape="809.64,1100.37 810.23,1096.67 809.97,1094.06 809.03,1091.51 807.53,1087.96"/>
        <lane id=":1108139591_0_1" index="1" disallow="pedestrian tram rail_urban rail rail_electric rail_fast ship" speed="13.89" length="13.50" shape="809.64,1100.37 810.76,1096.49 811.62,1093.73 811.76,1091.03 810.71,1087.31"/>
    </edge>
    <edge id=":1108139591_2" function="internal">
        <lane id=":1108139591_2_0" index="0" disallow="pedestrian tram rail_urban rail rail_electric rail_fast ship" speed="13.89" length="13.43" shape="809.64,1100.37 810.70,1096.44 811.76,1093.86 813.08,1091.36 814.94,1087.71"/>
        <lane id=":1108139591_2_1" index="1" disallow="pedestrian tram rail_urban rail rail_electric rail_fast ship" speed="13.89" length="13.43" shape="812.76,1101.09 813.77,1097.36 814.79,1094.91 816.06,1092.55 817.83,1089.09"/>
    </edge>
    <edge id=":1108139591_w0" function="walkingarea">
        <lane id=":1108139591_w0_0" index="0" allow="pedestrian" speed="1.00" length="11.30" width="3.00" shape="805.85,1088.05 803.05,1089.14 805.16,1099.35 808.08,1100.02 808.53,1097.57 808.60,1095.72 808.35,1094.18 807.80,1092.67 807.02,1090.88"/>
    </edge>
    <edge id=":1202330429_0" function="internal">
        <lane id=":1202330429_0_0" index="0" disallow="pedestrian tram rail_urban rail rail_electric rail_fast ship" speed="3.65" length="4.67" shape="1726.52,758.79 1727.59,759.76 1727.86,760.61 1727.35,761.34 1726.04,761.95"/>
    </edge>
    <edge id=":1202330436_0" function="internal">
        <lane id=":1202330436_0_0" index="0" disallow="pedestrian tram rail_urban rail rail_electric rail_fast ship" speed="13.89" length="10.40" shape="1377.98,486.72 1375.00,476.76"/>
    </edge>
    <edge id=":1202330436_1" function="internal">
        <lane id=":1202330436_1_0" index="0" disallow="pedestrian tram rail_urban rail rail_electric rail_fast ship" speed="3.65" length="1.44" shape="1377.98,486.72 1378.43,485.35"/>
    </edge>
    <edge id=":1202330436_6" function="internal">
        <lane id=":1202330436_6_0" index="0" disallow="pedestrian tram rail_urban rail rail_electric rail_fast ship" speed="3.65" length="3.23" shape="1378.43,485.35 1379.10,484.76 1379.97,484.93 1381.06,485.87"/>
    </edge>
    <edge id=":1202330436_2" function="internal">
        <lane id=":1202330436_2_0" index="0" disallow="pedestrian tram rail_urban rail rail_electric rail_fast ship" speed="13.89" length="10.49" shape="1378.05,475.82 1381.06,485.87"/>
    </edge>
    <edge id=":1202330436_3" function="internal">
        <lane id=":1202330436_3_0" index="0" disallow="pedestrian tram rail_urban rail rail_electric rail_fast ship" speed="3.65" length="1.44" shape="1378.05,475.82 1377.64,477.20"/>
    </edge>
    <edge id=":1202330436_7" function="internal">
        <lane id=":1202330436_7_0" index="0" disallow="pedestrian tram rail_urban rail rail_electric rail_fast ship" speed="3.65" length="3.23" shape="1377.64,477.20 1377.00,477.82 1376.11,477.67 1375.00,476.76"/>
    </edge>
    <edge id=":1202330436_4" function="internal">
        <lane id=":1202330436_4_0" index="0" disallow="pedestrian tram rail_urban rail rail_electric rail_fast ship" speed="6.41" length="9.61" shape="1370.16,483.35 1372.91,482.53 1374.63,481.15 1375.33,479.23 1375.00,476.76"/>
    </edge>
    <edge id=":1202330436_5" function="internal">
        <lane id=":1202330436_5_0" index="0" disallow="pedestrian tram rail_urban rail rail_electric rail_fast ship" speed="7.71" length="12.09" shape="1370.16,483.35 1374.50,482.89 1377.76,483.16 1379.95,484.15 1381.06,485.87"/>
    </edge>
    <edge id=":1202330436_c0" function="crossing" crossingEdges="-1066387399#0 1066387399#0">
        <lane id=":1202330436_c0_0" index="0" allow="pedestrian" speed="1.00" length="6.40" width="4.00" shape="1382.07,483.52 1375.90,485.22"/>
    </edge>
    <edge id=":1202330436_c1" function="crossing" crossingEdges="1066387399#1 -1066387399#1">
        <lane id=":1202330436_c1_0" index="0" allow="pedestrian" speed="1.00" length="6.40" width="4.00" shape="1374.06,479.14 1380.17,477.26"/>
    </edge>
    <edge id=":1202330436_c2" function="crossing" crossingEdges="104203825">
        <lane id=":1202330436_c2_0" index="0" allow="pedestrian" speed="1.00" length="3.20" width="4.00" shape="1372.40,484.59 1371.87,481.44"/>
    </edge>
    <edge id=":1202330436_w0" function="walkingarea">
        <lane id=":1202330436_w0_0" index="0" allow="pedestrian" speed="1.00" length="3.71" width="4.00" shape="1370.43,484.93 1370.76,486.90 1373.54,487.94 1376.44,487.15 1376.03,486.23 1375.39,485.53 1374.51,485.05 1373.39,484.79 1372.03,484.75"/>
    </edge>
    <edge id=":1202330436_w1" function="walkingarea">
        <lane id=":1202330436_w1_0" index="0" allow="pedestrian" speed="1.00" length="6.59" width="4.00" shape="1381.54,481.59 1382.61,485.45 1385.50,484.65 1382.45,474.46 1379.58,475.35 1380.76,479.17"/>
    </edge>
    <edge id=":1202330436_w2" function="walkingarea">
        <lane id=":1202330436_w2_0" index="0" allow="pedestrian" speed="1.00" length="3.36" width="4.00" shape="1373.47,477.23 1370.60,478.12 1369.56,479.80 1369.90,481.77 1371.31,481.43 1372.39,480.91 1373.15,480.24 1373.58,479.40 1373.69,478.40"/>
    </edge>
    <edge id=":1202330475_0" function="internal">
        <lane id=":1202330475_0_0" index="0" disallow="pedestrian tram rail_urban rail rail_electric rail_fast ship" speed="3.65" length="4.67" shape="1175.63,389.60 1174.33,388.99 1173.81,388.25 1174.09,387.40 1175.16,386.44"/>
    </edge>
    <edge id=":1202330481_0" function="internal">
        <lane id=":1202330481_0_0" index="0" disallow="pedestrian tram rail_urban rail rail_electric rail_fast ship" speed="13.89" length="7.24" shape="1102.43,897.66 1109.67,897.85"/>
    </edge>
    <edge id=":1202330481_c0" function="crossing" crossingEdges="134121549#1">
        <lane id=":1202330481_c0_0" index="0" allow="pedestrian" speed="1.00" length="3.20" width="4.00" shape="1107.73,896.17 1107.60,899.37"/>
    </edge>
    <edge id=":1202330481_w0" function="walkingarea">
        <lane id=":1202330481_w0_0" index="0" allow="pedestrian" speed="1.00" length="4.83" width="4.00" shape="1102.47,899.26 1102.52,901.26 1109.52,901.45 1109.60,899.45 1105.60,899.29"/>
    </edge>
    <edge id=":1202330481_w1" function="walkingarea">
        <lane id=":1202330481_w1_0" index="0" allow="pedestrian" speed="1.00" length="4.77" width="4.00" shape="1105.73,896.09 1109.73,896.25 1109.81,894.26 1109.10,892.92 1107.40,891.87 1102.34,894.06 1102.39,896.06"/>
    </edge>
    <edge id=":1202330526_0" function="internal">
        <lane id=":1202330526_0_0" index="0" disallow="pedestrian tram rail_urban rail rail_electric rail_fast ship" speed="13.89" length="10.96" shape="1611.45,1104.40 1621.47,1108.85"/>
    </edge>
    <edge id=":1202330526_1" function="internal">
        <lane id=":1202330526_1_0" index="0" disallow="pedestrian tram rail_urban rail rail_electric rail_fast ship" speed="6.51" length="4.10" shape="1614.18,1111.73 1615.48,1109.67 1616.84,1108.71"/>
    </edge>
    <edge id=":1202330526_2" function="internal">
        <lane id=":1202330526_2_0" index="0" disallow="pedestrian tram rail_urban rail rail_electric rail_fast ship" speed="6.51" length="4.80" shape="1616.84,1108.71 1617.12,1108.50 1619.12,1108.23 1621.47,1108.85"/>
    </edge>
    <edge id=":1202330586_0" function="internal">
        <lane id=":1202330586_0_0" index="0" disallow="pedestrian tram rail_urban rail rail_electric rail_fast ship" speed="7.17" length="10.61" shape="1506.56,739.30 1503.90,737.30 1501.45,736.41 1499.20,736.61 1497.15,737.90"/>
    </edge>
    <edge id=":1202330586_1" function="internal">
        <lane id=":1202330586_1_0" index="0" disallow="pedestrian tram rail_urban rail rail_electric rail_fast ship" speed="8.68" length="16.90" shape="1505.65,722.33 1503.63,725.62 1503.47,729.16 1505.17,732.93 1508.73,736.94"/>
    </edge>
    <edge id=":1202330586_2" function="internal">
        <lane id=":1202330586_2_0" index="0" disallow="pedestrian tram rail_urban rail rail_electric rail_fast ship" speed="13.89" length="17.03" shape="1505.65,722.33 1494.95,735.58"/>
    </edge>
    <edge id=":1202330586_c0" function="crossing" crossingEdges="1066387397">
        <lane id=":1202330586_c0_0" index="0" allow="pedestrian" speed="1.00" length="6.40" width="4.00" shape="1499.71,737.69 1495.30,733.04"/>
    </edge>
    <edge id=":1202330586_w0" function="walkingarea">
        <lane id=":1202330586_w0_0" index="0" allow="pedestrian" speed="1.00" length="2.24" width="4.00" shape="1492.48,732.97 1493.85,734.42 1496.37,731.85 1498.06,729.79 1499.31,727.97 1500.53,726.12 1502.12,723.97"/>
    </edge>
    <edge id=":1202330586_w1" function="walkingarea">
        <lane id=":1202330586_w1_0" index="0" allow="pedestrian" speed="1.00" length="2.24" width="4.00" shape="1498.26,739.06 1499.63,740.51 1504.05,739.30 1502.71,738.51 1501.46,738.09 1500.30,738.04 1499.24,738.36"/>
    </edge>
    <edge id=":1202330597_w0" function="walkingarea">
        <lane id=":1202330597_w0_0" index="0" allow="pedestrian" speed="1.00" length="4.43" width="2.00" shape="1478.14,1536.92 1478.00,1534.93 1474.48,1533.02 1473.07,1534.43 1472.67,1535.83 1473.11,1537.78"/>
    </edge>
    <edge id=":1202330603_0" function="internal">
        <lane id=":1202330603_0_0" index="0" disallow="pedestrian tram rail_urban rail rail_electric rail_fast ship" speed="8.33" length="8.96" shape="1139.49,797.67 1142.06,798.32 1143.82,798.80 1145.55,799.37 1148.04,800.30"/>
    </edge>
    <edge id=":1202330603_1" function="internal">
        <lane id=":1202330603_1_0" index="0" disallow="pedestrian tram rail_urban rail rail_electric rail_fast ship" speed="7.45" length="8.06" shape="1140.81,802.76 1142.73,801.20 1144.58,800.28 1146.35,799.97 1148.04,800.30"/>
    </edge>
    <edge id=":1202330628_0" function="internal">
        <lane id=":1202330628_0_0" index="0" disallow="pedestrian tram rail_urban rail rail_electric rail_fast ship" speed="13.89" length="6.69" shape="1431.41,680.36 1429.59,673.93"/>
    </edge>
    <edge id=":1202330628_1" function="internal">
        <lane id=":1202330628_1_0" index="0" disallow="pedestrian tram rail_urban rail rail_electric rail_fast ship" speed="7.30" length="1.44" shape="1431.41,680.36 1431.64,679.05 1431.71,678.98"/>
    </edge>
    <edge id=":1202330628_4" function="internal">
        <lane id=":1202330628_4_0" index="0" disallow="pedestrian tram rail_urban rail rail_electric rail_fast ship" speed="7.30" length="9.23" shape="1431.71,678.98 1433.07,677.59 1435.69,675.97 1439.51,674.20"/>
    </edge>
    <edge id=":1202330628_2" function="internal">
        <lane id=":1202330628_2_0" index="0" disallow="pedestrian tram rail_urban rail rail_electric rail_fast ship" speed="5.90" length="7.94" shape="1432.67,673.08 1433.47,674.49 1434.87,675.14 1436.88,675.05 1439.51,674.20"/>
    </edge>
    <edge id=":1202330628_3" function="internal">
        <lane id=":1202330628_3_0" index="0" disallow="pedestrian tram rail_urban rail rail_electric rail_fast ship" speed="13.89" length="6.63" shape="1432.67,673.08 1434.48,679.46"/>
    </edge>
    <edge id=":1202330628_c0" function="crossing" crossingEdges="1066387399#0 -1066387399#0">
        <lane id=":1202330628_c0_0" index="0" allow="pedestrian" speed="1.00" length="6.40" width="4.00" shape="1428.58,676.29 1434.75,674.58"/>
    </edge>
    <edge id=":1202330628_w0" function="walkingarea">
        <lane id=":1202330628_w0_0" index="0" allow="pedestrian" speed="1.00" length="2.50" width="4.00" shape="1437.11,671.86 1434.21,672.66 1434.48,673.16 1434.96,673.47 1435.63,673.58 1436.51,673.49 1437.60,673.21"/>
    </edge>
    <edge id=":1202330628_w1" function="walkingarea">
        <lane id=":1202330628_w1_0" index="0" allow="pedestrian" speed="1.00" length="2.50" width="4.00" shape="1429.11,678.21 1428.04,674.36 1425.15,675.15"/>
    </edge>
    <edge id=":1202330650_0" function="internal">
        <lane id=":1202330650_0_0" index="0" disallow="pedestrian tram rail_urban rail rail_electric rail_fast ship" speed="7.93" length="11.83" shape="1082.81,788.31 1078.75,788.29 1075.68,788.90 1073.58,790.16 1072.48,792.05"/>
    </edge>
    <edge id=":1202330666_w0" function="walkingarea">
        <lane id=":1202330666_w0_0" index="0" allow="pedestrian" speed="1.00" length="5.49" width="2.00" shape="1348.79,1405.13 1347.11,1404.04 1341.98,1407.77 1342.98,1409.50 1343.53,1410.06 1345.26,1411.06"/>
    </edge>
    <edge id=":1202330683_w0" function="walkingarea">
        <lane id=":1202330683_w0_0" index="0" allow="pedestrian" speed="1.00" length="4.29" width="2.00" shape="1126.22,867.23 1127.83,866.04 1124.98,861.89 1123.28,862.94 1122.85,866.31 1124.58,867.32"/>
    </edge>
    <edge id=":1202330687_0" function="internal">
        <lane id=":1202330687_0_0" index="0" disallow="pedestrian tram rail_urban rail rail_electric rail_fast ship" speed="8.24" length="5.66" shape="1276.99,501.09 1278.03,499.80 1278.93,499.05 1280.01,498.61 1281.64,498.28"/>
    </edge>
    <edge id=":1202330687_c0" function="crossing" crossingEdges="104203825">
        <lane id=":1202330687_c0_0" index="0" allow="pedestrian" speed="1.00" length="3.20" width="4.00" shape="1279.40,497.04 1279.93,500.19"/>
    </edge>
    <edge id=":1202330687_w0" function="walkingarea">
        <lane id=":1202330687_w0_0" index="0" allow="pedestrian" speed="1.00" length="2.80" width="4.00" shape="1278.26,502.06 1279.85,503.27 1282.24,501.83 1281.90,499.86 1281.00,500.03 1280.31,500.21 1279.78,500.46 1279.31,500.82 1278.83,501.33"/>
    </edge>
    <edge id=":1202330687_w1" function="walkingarea">
        <lane id=":1202330687_w1_0" index="0" allow="pedestrian" speed="1.00" length="4.88" width="4.00" shape="1281.37,496.70 1281.04,494.73 1276.78,494.06 1275.11,495.16 1274.13,498.90 1275.72,500.12 1276.60,498.99 1277.35,498.19 1278.07,497.63 1278.90,497.25 1279.96,496.97"/>
    </edge>
    <edge id=":1202330740_0" function="internal">
        <lane id=":1202330740_0_0" index="0" disallow="pedestrian tram rail_urban rail rail_electric rail_fast ship" speed="13.89" length="11.24" shape="1623.37,1109.64 1633.68,1114.12"/>
    </edge>
    <edge id=":1202330740_1" function="internal">
        <lane id=":1202330740_1_0" index="0" disallow="pedestrian tram rail_urban rail rail_electric rail_fast ship" speed="6.43" length="9.03" shape="1623.37,1109.64 1625.50,1110.93 1626.68,1112.57 1626.92,1114.59 1626.20,1116.97"/>
    </edge>
    <edge id=":1202330811_w0" function="walkingarea">
        <lane id=":1202330811_w0_0" index="0" allow="pedestrian" speed="1.00" length="5.20" width="2.00" shape="1641.33,865.98 1640.70,867.88 1642.96,861.04 1642.33,862.94"/>
    </edge>
    <edge id=":1202330820_w0" function="walkingarea">
        <lane id=":1202330820_w0_0" index="0" allow="pedestrian" speed="1.00" length="4.56" width="2.00" shape="1460.23,1519.40 1461.88,1518.27 1458.75,1513.70 1457.10,1514.83 1457.02,1518.99 1458.93,1519.59"/>
    </edge>
    <edge id=":1202330868_w0" function="walkingarea">
        <lane id=":1202330868_w0_0" index="0" allow="pedestrian" speed="1.00" length="4.66" width="2.00" shape="1324.96,1446.33 1326.73,1445.40 1326.40,1440.60 1324.41,1440.39 1323.27,1440.75 1321.76,1442.07"/>
    </edge>
    <edge id=":1202330893_0" function="internal">
        <lane id=":1202330893_0_0" index="0" disallow="pedestrian tram rail_urban rail rail_electric rail_fast ship" speed="8.54" length="10.51" shape="1222.78,379.20 1217.09,380.85 1213.17,382.77 1213.02,382.92"/>
    </edge>
    <edge id=":1202330893_1" function="internal">
        <lane id=":1202330893_1_0" index="0" disallow="pedestrian tram rail_urban rail rail_electric rail_fast ship" speed="13.89" length="18.82" shape="1222.78,379.20 1218.64,380.51 1213.91,382.36 1209.16,384.13 1204.98,385.23"/>
    </edge>
    <edge id=":1202330893_4" function="internal">
        <lane id=":1202330893_4_0" index="0" disallow="pedestrian tram rail_urban rail rail_electric rail_fast ship" speed="8.54" length="5.38" shape="1213.02,382.92 1211.02,384.98 1210.64,387.46"/>
    </edge>
    <edge id=":1202330893_2" function="internal">
        <lane id=":1202330893_2_0" index="0" disallow="pedestrian tram rail_urban rail rail_electric rail_fast ship" speed="6.66" length="2.24" shape="1204.51,382.06 1206.74,382.12"/>
    </edge>
    <edge id=":1202330893_3" function="internal">
        <lane id=":1202330893_3_0" index="0" disallow="pedestrian tram rail_urban rail rail_electric rail_fast ship" speed="3.65" length="1.33" shape="1204.51,382.06 1205.71,382.63"/>
    </edge>
    <edge id=":1202330893_5" function="internal">
        <lane id=":1202330893_5_0" index="0" disallow="pedestrian tram rail_urban rail rail_electric rail_fast ship" speed="6.66" length="6.96" shape="1206.74,382.12 1208.51,383.04 1209.81,384.82 1210.64,387.46"/>
    </edge>
    <edge id=":1202330893_6" function="internal">
        <lane id=":1202330893_6_0" index="0" disallow="pedestrian tram rail_urban rail rail_electric rail_fast ship" speed="3.65" length="3.34" shape="1205.71,382.63 1205.81,382.68 1206.32,383.41 1206.05,384.26 1204.98,385.23"/>
    </edge>
    <edge id=":1202330893_c0" function="crossing" crossingEdges="104203853#0">
        <lane id=":1202330893_c0_0" index="0" allow="pedestrian" speed="1.00" length="3.20" width="4.00" shape="1211.83,385.19 1208.69,385.80"/>
    </edge>
    <edge id=":1202330893_w0" function="walkingarea">
        <lane id=":1202330893_w0_0" index="0" allow="pedestrian" speed="1.00" length="2.24" width="4.00" shape="1207.11,388.15 1209.07,387.77 1208.88,387.33 1208.51,387.00 1207.96,386.78 1207.23,386.68 1206.31,386.69"/>
    </edge>
    <edge id=":1202330893_w1" function="walkingarea">
        <lane id=":1202330893_w1_0" index="0" allow="pedestrian" speed="1.00" length="2.24" width="4.00" shape="1212.21,387.16 1214.17,386.77 1219.60,381.68 1216.75,382.66 1214.58,383.69 1213.10,384.79 1212.31,385.94"/>
    </edge>
    <edge id=":1202330922_0" function="internal">
        <lane id=":1202330922_0_0" index="0" disallow="pedestrian tram rail_urban rail rail_electric rail_fast ship" speed="13.89" length="13.86" shape="1557.94,774.55 1555.61,777.26 1553.49,779.87 1551.46,782.54 1549.38,785.45"/>
    </edge>
    <edge id=":1202330922_1" function="internal">
        <lane id=":1202330922_1_0" index="0" disallow="pedestrian tram rail_urban rail rail_electric rail_fast ship" speed="7.96" length="3.93" shape="1557.94,774.55 1554.96,777.10"/>
    </edge>
    <edge id=":1202330922_6" function="internal">
        <lane id=":1202330922_6_0" index="0" disallow="pedestrian tram rail_urban rail rail_electric rail_fast ship" speed="7.96" length="10.36" shape="1554.96,777.10 1551.89,778.06 1548.74,777.43 1545.50,775.20"/>
    </edge>
    <edge id=":1202330922_2" function="internal">
        <lane id=":1202330922_2_0" index="0" disallow="pedestrian tram rail_urban rail rail_electric rail_fast ship" speed="6.46" length="9.03" shape="1547.67,772.85 1549.72,774.26 1551.71,774.66 1553.65,774.05 1555.54,772.44"/>
    </edge>
    <edge id=":1202330922_3" function="internal">