<?xml version="1.0" ?>
<!-- Generated by MOSAIC scenario-convert 22.0 -->
<routes>
	<vType id="default" length="7.5" maxSpeed="50" minGap="2.0" carFollowModel="Krauss" accel="0.80" decel="4.5" sigma="0.5" tau="1"/>
	<route id="230" edges="165595482#0 165595482#1 130673498 161871532 40284959#0 40284959#1 40284959#2 40284959#3 40284959#4 40285042 116135245#0 116135245#1 24267075 24267081 -1067179852 -1067179853#2 -1067179853#0 -450682081#1 -450682081#0 -161870608 24267088 161863237 1110264617 1117123985 1078551359 520281211#0 520281211#1 1067179855 1066387399#0 1066387399#1 1066387399#3" />
	<route id="110" edges="135001586#0 135001586#1 104203828 520907937 25329248 1066387386 1066387389 520907938 -1066387390 -303127234 1067225801 135530868 161870606 24267114 1110264616 -161863237 -24267088 161870608 450682081#0 450682081#1 1067179853#0 1067179853#1 1067179852 161870605#0 518870778 1055037544 1118885030 161871532 523381485#0 523381485#1 167515248 1118885031#0 1118885031#1 -167512493" />
	<route id="231" edges="165595482#0 165595482#1 130673498 161871532 40284959#0 40284959#1 40284959#2 40284959#3 40284959#4 40285042 116135245#0 116135245#1 24267075 24267081 -1067179852 -1067179853#2 -1067179853#0 -450682081#1 -450682081#0 -161870608 24267088 161863237 1110264617 1117123985 1078551359 520281211#0 520281211#1 1067179855 104203838" />
	<route id="111" edges="135001586#0 135001586#1 104203828 520907937 25329248 1066387386 1066387389 520907938 -1066387390 -303127234 1067225801 135530868 161870606 24267114 1110264616 -161863237 161863239 104203857#0 104203857#1 161870611 450682080#1 25329179 24267075 40285031#0 40285031#1 40285042 27610290#0 165595468 1118885036 167515247 104205215 -104205221#10 -104205221#9 -104205221#8 -104205216 104205221#3 104205221#4 104205221#5" />
	<route id="232" edges="165595482#0 1102721345 -1055037544" />
	<route id="112" edges="135001586#0 135001586#1 104203828 520907937 25329248 1066387386 1066387389 520907938 -1066387390 -303127234 1067225801 135530868 161870606 24267114 1110264616 -161863237 161863239 104203857#0 104203857#1 161870611 450682080#1 25329179 24267075 40285031#0 40285031#1 40285042 27610290#0 165595468 1118885036 167515245 172903650" />
	<route id="233" edges="165595482#0 165595482#1 130673498 161871532 523381485#0 523381485#1 167515248 1118885031#0 1118885031#1 -167512493" />
	<route id="113" edges="135001586#0 135001586#1 104203828 520907937 25329248 1066387386 1066387389 520907938 -1066387390 -303127234 1067225801 135530868 161870606 24267114 1110264616 -161863237 161863239 104203857#0 104203857#1 161870611 450682080#1 41736416#1 41736416#2 525352735 608022302 41779466 608022304 24267056#0 24267056#1 1117159562#0 1067232684 525352729 521369415 521369414 1110251952#0 521377145 1117129342 521377147" />
	<route id="234" edges="165595482#0 165595482#1 130673498 161871532 130673481#0 130673481#1 130673481#2 523381463#1 1118885036 167515245 172903650" />
	<route id="114" edges="32501101#1 32501101#2 104203815 135000899 520907937 25329248 1066387386 1066387389 -135000604#1 -135000604#0 -1066387382#0 -32501217 -32501230 1118881988 525352730 40284971 -116139659 116139663 1118885048#0 -1118885048#2 310206045 1118885084 134394992 303127243 1118885081 41779467 608022305 521369417 521369419 186466799 20899781 1118885065 1118885066 1118885067 1118885068" />
	<route id="235" edges="165595482#0 165595482#1 130673498 161871532 130673481#0 130673481#1 130673481#2 523381463#1 1118885036 167515245 172903650 24267008 157520966#1 157520966#2 24267178 211816963#0 1110251952#0 521377145 1117129342 521377147" />
	<route id="115" edges="32501101#1 32501101#2 104203815 135000899 520907937 25329248 1066387386 1066387389 -135000604#1 -135000604#0 -1066387382#0 -32501217 -32501230 1118881988 525352730 40284971 -116139659 116139663 1118885048#0 -1118885048#2 310206045 1118885084 134394992 303127243 1118885081 41779467 608022305 521369417 521369419 186466799 20899781 1118885065 1118885066 1118885067 1118885068 1118885070#0" />
	<route id="236" edges="167512493 -1118885031#1 -1118885031#0 -167515248 -523381485#1 -523381485#0 130673481#0 130673481#1 130673481#2 523381463#1 1118885036 167515245 172903650 24267008 157520966#1 157520966#2 24267178 211816963#0 1110251952#0 521377145 303127225 -1118885077 -41779480 1118930500#0 1118930500#1 41779481 1118885066 1118885067 1118885068" />
	<route id="116" edges="32501101#1 32501101#2 104203815 135000899 520907937 25329248 1066387386 1066387389 -135000604#1 -135000604#0 -1066387382#0 -32501217 -32501230 1118881988 525352730 40284971 -116139659 116139663 1118885048#0 -1118885048#2 310206045 1118885084 134394992 303127243 1118885081 41779467 608022305 27610322 521369420#0 1118930502" />
	<route id="237" edges="167512493 -1118885031#1 -1118885031#0 -167515248 -523381485#1 -523381485#0 130673481#0 130673481#1 130673481#2 523381463#1 1118885036 167515245 172903650 24267008 157520966#1 157520966#2 24267178 211816963#0 1110251952#0 521377145 303127225 -1118885077 -41779480 1118930500#0 1118930500#1 41779481 1118885066 1118885067 1118885068 1118885070#0" />
	<route id="117" edges="32501101#1 32501101#2 104203815 135000899 520907937 25329248 1066387386 1066387389 -135000604#1 -135000604#0 104203837#0 104203837#1 104203837#2 104203837#3 135000273 -32501221#1 -32501221#0 1118885050#0 1118885050#1 1118885050#2" />
	<route id="238" edges="167512493 -1118885031#1 -1118885031#0 -167515248 -523381485#1 -523381485#0 130673481#0 130673481#1 130673481#2 523381463#1 1118885036 167515245 172903650 24267008 157520966#1 157520966#2 157520966#4 1117159562#0 1067232684 1117159561 41779467 608022305 27610322 521369420#0 1118930502" />
	<route id="118" edges="32501101#1 32501101#2 104203815 135000899 520907937 -1118885051#1 -1118885051#0 -1066387388 -77616016" />
	<route id="239" edges="167512493 -1118885031#1 -1118885031#0 -167515248 -523381485#1 -523381485#0 40284959#0 40284959#1 40284959#2 40284959#3 40284959#4 40285042 116135245#0 116135245#1 24267075 24267081 24267079 161870611 450682080#1 41736416#1 41736416#2 525352735 608022302 -303407190 -32501230 1118881988 32501204 211743270#0 211743270#1 1118885050#0 1118885050#1 1118885050#2" />
	<route id="119" edges="32501101#1 32501101#2 104203815 135000899 520907937 -1118885051#1 -1118885051#0 -1118885052#1" />
	<route id="10" edges="-1118885068 -1118885067 -1118885066 -1118885065 -20899781 186466797 521369416#0 521369416#1 303409704#0 303409704#1 303409704#2 303409704#3 521369415 525352728 1067179856#0 1067232685#0 518870782#0 518870782#1 24267075 24267081 -1067179852 -1067179853#2 -1067179853#0 -450682081#1 -450682081#0 -161870608 24267088 161863237 1110264617 1117123985 1078551359 520281211#0 520281211#1 1067179855 104203838" />
	<route id="11" edges="-1118885068 -1118885067 -1118885066 -1118885065 -20899781 186466797 521369416#0 521369416#1 303409704#0 303409704#1 303409704#2 303409704#3 521369415 525352728 1067179856#0 1067232685#0 518870782#0 518870782#1 24267075 24267081 161870605#0 518870778" />
	<route id="12" edges="-1118885068 -1118885067 -1118885066 -1118885065 -20899781 186466797 521369416#0 521369416#1 303409704#0 303409704#1 303409704#2 303409704#3 521369415 525352728 1067179856#0 1067232685#0 518870782#0 518870782#1 24267075 24267081 161870605#0 518870778 1055037544 1118885030 161871532 523381485#0 523381485#1 451864556 24267196#0 24267196#1" />
	<route id="13" edges="-1118885068 -1118885067 -1118885066 -1118885065 -20899781 186466797 521369416#0 521369416#1 303409704#0 303409704#1 303409704#2 303409704#3 521369415 525352728 1067179856#0 1067232685#0 518870782#0 518870782#1 24267075 40285031#0 40285031#1 40285042 27610290#0 165595468 1118885035 40284962#0 40284962#1 40284962#2 1118885031#0 1118885031#1 -167512493" />
	<route id="14" edges="-1118885068 -1118885067 -1118885066 -1118885065 -20899781 186466797 521369416#0 521369416#1 303409704#0 303409704#1 303409704#2 303409704#3 521369415 525352728 1067179856#0 1067232685#0 518870782#0 518870782#1 24267075 40285031#0 40285031#1 40285042 27610290#0 165595468 1118885036 167515247 104205215 -104205221#10 -104205221#9 -104205221#8 -104205216 104205221#3 104205221#4 104205221#5" />
	<route id="15" edges="24267161 24267164 1118930501 41779480 1118885077 186466821 521377147 521377146#0 521377146#1 1117129344 521377144 24266991 1117129348 1117129347 1117129345#0 1117129345#1 24266978" />
	<route id="16" edges="24267161 24267164 1118930501 41779480 1118885077 186466821 521377147" />
	<route id="17" edges="-1118885070#1" />
	<route id="18" edges="-1118885070#1 -1118885068 -1118885067 -1118885066 -1118885065 -20899781 186466797 521369416#0 303409700 27610322 521369420#0 1118930502" />
	<route id="19" edges="-1118885070#1 -1118885068 -1118885067 -1118885066 -1118885065 -20899781 186466797 521369416#0 303409700 27610322 521369420#0 -1118885049 134395934 339161587#1 339161587#2 1118881988 32501204 211743270#0 211743270#1 1118885050#0 1118885050#1 1118885050#2" />
	<route id="240" edges="167512493 -1118885031#1 -1118885031#0 -167515248 -523381485#1 -523381485#0 40284959#0 40284959#1 40284959#2 40284959#3 40284959#4 40285042 116135245#0 116135245#1 24267075 24267081 -1067179852 -1067179853#2 -1067179853#0 -450682081#1 -450682081#0 -161870608 24267088 161863237 1110264617 1117123985 1078551359 303127223 450682083 24267065 303127234 1066387390 32501129#0 32501129#1 104203815 135000899 520907937 -1118885051#1 -1118885051#0 -1066387388 -77616016" />
	<route id="120" edges="32501101#1 32501101#2 104203815 135000899 520907937 25329248 1066387386 1066387389 520907938 32501129#0 1117137495 32501133 303412620#1" />
	<route id="241" edges="167512493 -1118885031#1 -1118885031#0 -167515248 -523381485#1 -523381485#0 40284959#0 40284959#1 40284959#2 40284959#3 40284959#4 40285042 116135245#0 116135245#1 24267075 24267081 -1067179852 -1067179853#2 -1067179853#0 -450682081#1 -450682081#0 -161870608 24267088 161863237 1110264617 1117123985 1078551359 303127223 450682083 24267065 303127234 1066387390 32501129#0 32501129#1 104203815 135000899 520907937 -1118885051#1 -1118885051#0 -1118885052#1" />
	<route id="121" edges="32501101#1 32501101#2 104203815 135000899 520907937 25329248 1066387386 1066387389 520907938 32501129#0 1117137495 32501133 303412620#1 32501123 548545760#1 1066387396 -104203814" />
	<route id="242" edges="167512493 -1118885031#1 -1118885031#0 -167515248 -523381485#1 -523381485#0 40284959#0 40284959#1 40284959#2 40284959#3 40284959#4 40285042 116135245#0 116135245#1 24267075 24267081 -1067179852 -1067179853#2 -1067179853#0 -450682081#1 -450682081#0 -161870608 24267088 161863237 1110264617 1117123985 1078551359 303127223 450682083 24267065 303127234 41779525 41779526" />
	<route id="1" edges="1118885070#0" />
	<route id="122" edges="32501101#1 32501101#2 104203815 135000899 520907937 25329248 1066387386 1066387389 520907938 -1066387390 -303127234 1067225801 135530868 161870606 24267114 1117123985 1078551359 520281211#0 520281211#1 1067179855 1066387399#0 1066387399#1 1066387399#3" />
	<route id="243" edges="167512493 -1118885031#1 -1118885031#0 -167515248 -523381485#1 -523381485#0 40284959#0 40284959#1 40284959#2 40284959#3 40284959#4 40285042 116135245#0 116135245#1 24267075 24267081 -1067179852 -1067179853#2 -1067179853#0 -450682081#1 -450682081#0 -161870608 24267088 161863237 1110264617 1117123985 1078551359 303127223 450682083 303412620#0 303412620#1" />
	<route id="2" edges="-1118885068 -1118885067 -1118885066 -1118885065 -20899781 186466797 521369416#0 303409700 27610322 521369420#0 1118930502" />
	<route id="123" edges="32501101#1 32501101#2 104203815 135000899 520907937 25329248 1066387386 1066387389 520907938 -1066387390 -303127234 1067225801 135530868 161870606 24267114 1117123985 1078551359 520281211#0 520281211#1 1067179855 104203838" />
	<route id="244" edges="167512493 -1118885031#1 -1118885031#0 -167515248 -523381485#1 -523381485#0 40284959#0 40284959#1 40284959#2 40284959#3 40284959#4 40285042 116135245#0 116135245#1 24267075 24267081 -1067179852 -1067179853#2 -1067179853#0 -450682081#1 -450682081#0 -161870608 24267088 161863237 1110264617 1117123985 1078551359 520281211#0 520281211#1 1067179855 104203838 104203790" />
	<route id="3" edges="-1118885068 -1118885067 -1118885066 -1118885065 -20899781 186466797 521369416#0 303409700 27610322 521369420#0 -1118885049 134395934 339161587#1 339161587#2 1118881988 32501204 211743270#0 211743270#1 1118885050#0 1118885050#1 1118885050#2" />
	<route id="124" edges="32501101#1 32501101#2 104203815 135000899 520907937 25329248 1066387386 1066387389 520907938 -1066387390 -303127234 1067225801 135530868 161870606 24267114 1110264616 -161863237 -24267088 161870608 450682081#0 450682081#1 1067179853#0 1067179853#1 1067179852 161870605#0 518870778" />
	<route id="245" edges="167512493 -1118885031#1 -1118885031#0 -167515248 -523381485#1 -523381485#0 40284959#0 40284959#1 40284959#2 40284959#3 40284959#4 40285042 116135245#0 116135245#1 24267075 24267081 -1067179852 -1067179853#2 -1067179853#0 -450682081#1 -450682081#0 -161870608 24267088 161863237 1110264617 1117123985 1078551359 520281211#0 520281211#1 1067179855 1066387399#0 1066387399#1 1066387399#3" />
	<route id="4" edges="-1118885068 -1118885067 -1118885066 -1118885065 -20899781 186466797 521369416#0 303409700 27610322 521369420#0 -1118885049 134395934 339161587#1 339161587#2 32501230 32501217 1066387382#0 135000604#0 135000604#1 520907938 32501129#0 32501129#1 104203815 135000899 520907937 -1118885051#1 -1118885051#0 -1066387388 -77616016" />
	<route id="125" edges="32501101#1 32501101#2 104203815 135000899 520907937 25329248 1066387386 1066387389 520907938 -1066387390 -303127234 1067225801 135530868 161870606 24267114 1110264616 -161863237 -24267088 161870608 450682081#0 450682081#1 1067179853#0 1067179853#1 1067179852 161870605#0 518870778 1055037544 1118885030 161871532 523381485#0 523381485#1 451864556 24267196#0 24267196#1" />
	<route id="246" edges="167512493 -1118885031#1 -1118885031#0 -167515248 -523381485#1 -523381485#0 40284959#0 40284959#1 40284959#2 40284959#3 40284959#4 40285042 116135245#0 116135245#1 24267075 24267081 -1067179852 -1067179853#2 -1067179853#0 -450682081#1 -450682081#0 -161870608 24267088 161863237 1110264617 1117123985 1078551359 520281211#0 520281211#1 1067179855 104203838" />
	<route id="5" edges="-1118885068 -1118885067 -1118885066 -1118885065 -20899781 186466797 521369416#0 303409700 27610322 521369420#0 -1118885049 134395934 339161587#1 339161587#2 32501230 32501217 1066387382#0 135000604#0 135000604#1 520907938 32501129#0 32501129#1 104203815 135000899 520907937 -1118885051#1 -1118885051#0 -1118885052#1" />
	<route id="126" edges="32501101#1 32501101#2 104203815 135000899 520907937 25329248 1066387386 1066387389 520907938 -1066387390 -303127234 1067225801 135530868 161870606 24267114 1110264616 -161863237 -24267088 161870608 450682081#0 450682081#1 1067179853#0 1067179853#1 1067179852 161870605#0 518870778 1055037544 1118885030 161871532 523381485#0 523381485#1 167515248 1118885031#0 1118885031#1 -167512493" />
	<route id="247" edges="167512493 -1118885031#1 -1118885031#0 -167515248 451864556 24267196#0 24267196#1 165595482#0 1102721345 -1055037544" />
	<route id="6" edges="-1118885068 -1118885067 -1118885066 -1118885065 -20899781 186466797 521369416#0 303409700 27610322 521369420#0 -1118885049 134395934 339161587#1 339161587#2 32501230 32501217 1066387382#0 135000604#0 135000604#1 520907938 32501129#0 1117137495 41779526" />
	<route id="127" edges="32501101#1 32501101#2 104203815 135000899 520907937 25329248 1066387386 1066387389 520907938 -1066387390 -303127234 1067225801 135530868 161870606 24267114 1110264616 -161863237 161863239 104203857#0 104203857#1 161870611 450682080#1 25329179 24267075 40285031#0 40285031#1 40285042 27610290#0 165595468 1118885036 167515247 104205215 -104205221#10 -104205221#9 -104205221#8 -104205216 104205221#3 104205221#4 104205221#5" />
	<route id="248" edges="167512493 -1118885031#1 -1118885031#0 -167515248 451864556 24267196#0 24267196#1" />
	<route id="7" edges="-1118885068 -1118885067 -1118885066 -1118885065 -20899781 186466797 521369416#0 521369416#1 303409704#0 303409704#1 303409704#2 303409704#3 521369415 525352728 1067179856#0 1067232685#0 518870782#0 518870782#1 24267075 24267081 -1067179852 -1067179853#2 -1067179853#0 -450682081#1 -450682081#0 -161870608 24267088 161863237 1110264617 1117123985 1078551359 303127223 450682083 303412620#0 303412620#1" />
	<route id="128" edges="32501101#1 32501101#2 104203815 135000899 520907937 25329248 1066387386 1066387389 520907938 -1066387390 -303127234 1067225801 135530868 161870606 24267114 1110264616 -161863237 161863239 104203857#0 104203857#1 161870611 450682080#1 25329179 24267075 40285031#0 40285031#1 40285042 27610290#0 165595468 1118885036 167515245 172903650" />
	<route id="249" edges="167512493 -1118885031#1 -1118885031#0 -167515248 -523381485#1 -523381485#0 130673481#0 130673481#1 130673481#2 523381463#1 1118885036 167515245 172903650" />
	<route id="8" edges="-1118885068 -1118885067 -1118885066 -1118885065 -20899781 186466797 521369416#0 521369416#1 303409704#0 303409704#1 303409704#2 303409704#3 521369415 525352728 1067179856#0 1067232685#0 518870782#0 518870782#1 24267075 24267081 -1067179852 -1067179853#2 -1067179853#0 -450682081#1 -450682081#0 -161870608 24267088 161863237 1110264617 1117123985 1078551359 520281211#0 520281211#1 1067179855 104203838 104203790" />
	<route id="129" edges="32501101#1 32501101#2 104203815 135000899 520907937 25329248 1066387386 1066387389 520907938 -1066387390 -303127234 1067225801 135530868 161870606 24267114 1110264616 -161863237 161863239 104203857#0 104203857#1 161870611 450682080#1 41736416#1 41736416#2 525352735 608022302 41779466 608022304 24267056#0 24267056#1 1117159562#0 1067232684 525352729 521369415 521369414 1110251952#0 521377145 1117129342 521377147" />
	<route id="9" edges="-1118885068 -1118885067 -1118885066 -1118885065 -20899781 186466797 521369416#0 521369416#1 303409704#0 303409704#1 303409704#2 303409704#3 521369415 525352728 1067179856#0 1067232685#0 518870782#0 518870782#1 24267075 24267081 -1067179852 -1067179853#2 -1067179853#0 -450682081#1 -450682081#0 -161870608 24267088 161863237 1110264617 1117123985 1078551359 520281211#0 520281211#1 1067179855 1066387399#0 1066387399#1 1066387399#3" />
	<route id="20" edges="-1118885070#1 -1118885068 -1118885067 -1118885066 -1118885065 -20899781 186466797 521369416#0 303409700 27610322 521369420#0 -1118885049 134395934 339161587#1 339161587#2 32501230 32501217 1066387382#0 135000604#0 135000604#1 520907938 32501129#0 32501129#1 104203815 135000899 520907937 -1118885051#1 -1118885051#0 -1066387388 -77616016" />
	<route id="21" edges="-1118885070#1 -1118885068 -1118885067 -1118885066 -1118885065 -20899781 186466797 521369416#0 303409700 27610322 521369420#0 -1118885049 134395934 339161587#1 339161587#2 32501230 32501217 1066387382#0 135000604#0 135000604#1 520907938 32501129#0 32501129#1 104203815 135000899 520907937 -1118885051#1 -1118885051#0 -1118885052#1" />
	<route id="22" edges="-1118885070#1 -1118885068 -1118885067 -1118885066 -1118885065 -20899781 186466797 521369416#0 303409700 27610322 521369420#0 -1118885049 134395934 339161587#1 339161587#2 32501230 32501217 1066387382#0 135000604#0 135000604#1 520907938 32501129#0 1117137495 41779526" />
	<route id="23" edges="-1118885070#1 -1118885068 -1118885067 -1118885066 -1118885065 -20899781 186466797 521369416#0 521369416#1 303409704#0 303409704#1 303409704#2 303409704#3 521369415 525352728 1067179856#0 1067232685#0 518870782#0 518870782#1 24267075 24267081 -1067179852 -1067179853#2 -1067179853#0 -450682081#1 -450682081#0 -161870608 24267088 161863237 1110264617 1117123985 1078551359 303127223 450682083 303412620#0 303412620#1" />
	<route id="24" edges="-1118885070#1 -1118885068 -1118885067 -1118885066 -1118885065 -20899781 186466797 521369416#0 521369416#1 303409704#0 303409704#1 303409704#2 303409704#3 521369415 525352728 1067179856#0 1067232685#0 518870782#0 518870782#1 24267075 24267081 -1067179852 -1067179853#2 -1067179853#0 -450682081#1 -450682081#0 -161870608 24267088 161863237 1110264617 1117123985 1078551359 520281211#0 520281211#1 1067179855 104203838 104203790" />
	<route id="25" edges="-1118885070#1 -1118885068 -1118885067 -1118885066 -1118885065 -20899781 186466797 521369416#0 521369416#1 303409704#0 303409704#1 303409704#2 303409704#3 521369415 525352728 1067179856#0 1067232685#0 518870782#0 518870782#1 24267075 24267081 -1067179852 -1067179853#2 -1067179853#0 -450682081#1 -450682081#0 -161870608 24267088 161863237 1110264617 1117123985 1078551359 520281211#0 520281211#1 1067179855 1066387399#0 1066387399#1 1066387399#3" />
	<route id="26" edges="-1118885070#1 -1118885068 -1118885067 -1118885066 -1118885065 -20899781 186466797 521369416#0 521369416#1 303409704#0 303409704#1 303409704#2 303409704#3 521369415 525352728 1067179856#0 1067232685#0 518870782#0 518870782#1 24267075 24267081 -1067179852 -1067179853#2 -1067179853#0 -450682081#1 -450682081#0 -161870608 24267088 161863237 1110264617 1117123985 1078551359 520281211#0 520281211#1 1067179855 104203838" />
	<route id="27" edges="-1118885070#1 -1118885068 -1118885067 -1118885066 -1118885065 -20899781 186466797 521369416#0 521369416#1 303409704#0 303409704#1 303409704#2 303409704#3 521369415 525352728 1067179856#0 1067232685#0 518870782#0 518870782#1 24267075 24267081 161870605#0 518870778" />
	<route id="28" edges="-1118885070#1 -1118885068 -1118885067 -1118885066 -1118885065 -20899781 186466797 521369416#0 521369416#1 303409704#0 303409704#1 303409704#2 303409704#3 521369415 525352728 1067179856#0 1067232685#0 518870782#0 518870782#1 24267075 24267081 161870605#0 518870778 1055037544 1118885030 161871532 523381485#0 523381485#1 451864556 24267196#0 24267196#1" />
	<route id="29" edges="-1118885070#1 -1118885068 -1118885067 -1118885066 -1118885065 -20899781 186466797 521369416#0 521369416#1 303409704#0 303409704#1 303409704#2 303409704#3 521369415 525352728 1067179856#0 1067232685#0 518870782#0 518870782#1 24267075 40285031#0 40285031#1 40285042 27610290#0 165595468 1118885035 40284962#0 40284962#1 40284962#2 1118885031#0 1118885031#1 -167512493" />
	<route id="250" edges="167512493 -1118885031#1 -1118885031#0 -167515248 -523381485#1 -523381485#0 130673481#0 130673481#1 130673481#2 523381463#1 1118885036 167515245 172903650 24267008 157520966#1 157520966#2 24267178 211816963#0 1110251952#0 521377145 1117129342 521377147" />
	<route id="130" edges="32501123 548545760#1 1066387396 -104203814 1066387397 24267122#0 24267122#1 450682083 520281210 135530868 161870606 24267114 1110264616 -161863237 161863239 104203857#0 104203857#1 161870611 450682080#1 41736416#1 41736416#2 525352735 608022302 41779466 608022304 41779473#0 41779473#1 41779473#2 1118885084 134394992 303127243 1118885081 41779467 608022305 521369417 521369419 186466799 20899781 1118885065 1118885066 1118885067 1118885068" />
	<route id="251" edges="518870787 518870786#1 24267008 157520966#1 157520966#2 24267178 211816963#0 1110251952#0 521377145 303127225 -1118885077 -41779480 1118930500#0 1118930500#1 41779481 1118885066 1118885067 1118885068" />
	<route id="131" edges="32501123 548545760#1 1066387396 -104203814 1066387397 24267122#0 24267122#1 450682083 520281210 135530868 161870606 24267114 1110264616 -161863237 161863239 104203857#0 104203857#1 161870611 450682080#1 41736416#1 41736416#2 525352735 608022302 41779466 608022304 41779473#0 41779473#1 41779473#2 1118885084 134394992 303127243 1118885081 41779467 608022305 521369417 521369419 186466799 20899781 1118885065 1118885066 1118885067 1118885068 1118885070#0" />
	<route id="252" edges="518870787 518870786#1 24267008 157520966#1 157520966#2 24267178 211816963#0 1110251952#0 521377145 303127225 -1118885077 -41779480 1118930500#0 1118930500#1 41779481 1118885066 1118885067 1118885068 1118885070#0" />
	<route id="132" edges="32501123 548545760#1 1066387396 -104203814 1066387397 24267122#0 24267122#1 450682083 520281210 135530868 161870606 24267114 1110264616 -161863237 161863239 104203857#0 104203857#1 161870611 450682080#1 41736416#1 41736416#2 525352735 608022302 41779466 608022304 41779473#0 41779473#1 41779473#2 1118885084 134394992 303127243 1118885081 41779467 608022305 27610322 521369420#0 1118930502" />
	<route id="253" edges="518870787 518870786#1 24267008 157520966#1 157520966#2 157520966#4 1117159562#0 1067232684 1117159561 41779467 608022305 27610322 521369420#0 1118930502" />
	<route id="133" edges="32501123 548545760#1 1066387396 -104203814 1066387397 24267122#0 24267122#1 450682083 24267065 303127234 1066387390 32501129#0 32501129#1 104203815 135000899 520907937 25329248 1066387386 1066387389 -135000604#1 -135000604#0 104203837#0 104203837#1 104203837#2 104203837#3 135000273 -32501221#1 -32501221#0 1118885050#0 1118885050#1 1118885050#2" />
	<route id="254" edges="518870787 518870786#1 24267008 157520966#1 157520966#2 157520966#4 1067232685#0 518870782#0 518870782#1 24267075 24267081 24267079 161870611 450682080#1 41736416#1 41736416#2 525352735 608022302 -303407190 -32501230 1118881988 32501204 211743270#0 211743270#1 1118885050#0 1118885050#1 1118885050#2" />
	<route id="134" edges="32501123 548545760#1 1066387396 -104203814 1066387397 24267122#0 24267122#1 450682083 24267065 303127234 1066387390 32501129#0 32501129#1 104203815 135000899 520907937 -1118885051#1 -1118885051#0 -1066387388 -77616016" />
	<route id="255" edges="518870787 518870786#1 24267008 157520966#1 157520966#2 157520966#4 1067232685#0 518870782#0 518870782#1 24267075 24267081 -1067179852 -1067179853#2 -1067179853#0 -450682081#1 -450682081#0 -161870608 24267088 161863237 1110264617 1117123985 1078551359 303127223 450682083 24267065 303127234 1066387390 32501129#0 32501129#1 104203815 135000899 520907937 -1118885051#1 -1118885051#0 -1066387388 -77616016" />
	<route id="135" edges="32501123 548545760#1 1066387396 -104203814 1066387397 24267122#0 24267122#1 450682083 24267065 303127234 1066387390 32501129#0 32501129#1 104203815 135000899 520907937 -1118885051#1 -1118885051#0 -1118885052#1" />
	<route id="256" edges="518870787 518870786#1 24267008 157520966#1 157520966#2 157520966#4 1067232685#0 518870782#0 518870782#1 24267075 24267081 -1067179852 -1067179853#2 -1067179853#0 -450682081#1 -450682081#0 -161870608 24267088 161863237 1110264617 1117123985 1078551359 303127223 450682083 24267065 303127234 1066387390 32501129#0 32501129#1 104203815 135000899 520907937 -1118885051#1 -1118885051#0 -1118885052#1" />
	<route id="136" edges="32501123 548545760#1 1066387396 -104203814 1066387397 24267122#0 24267122#1 450682083 24267065 303127234 41779525 41779526" />
	<route id="257" edges="518870787 518870786#1 24267008 157520966#1 157520966#2 157520966#4 1067232685#0 518870782#0 518870782#1 24267075 24267081 24267079 161870611 450682080#1 41736416#1 41736416#2 525352735 608022302 -303407190 -32501230 1118881988 32501204 211743270#0 211743270#1 1118885050#0 1118885050#1 1118885050#2 1118885050#3 -1118885050#3" />
	<route id="137" edges="32501123 548545760#1 1066387396 -104203814" />
	<route id="258" edges="518870787 518870786#1 24267008 157520966#1 157520966#2 157520966#4 1067232685#0 518870782#0 518870782#1 24267075 24267081 -1067179852 -1067179853#2 -1067179853#0 -450682081#1 -450682081#0 -161870608 24267088 161863237 1110264617 1117123985 1078551359 303127223 450682083 24267065 303127234 41779525 41779526" />
	<route id="138" edges="32501123 548545760#1 1066387396 -104203814 1066387397 24267122#0 41779521 520281211#1 1067179855 1066387399#0 1066387399#1 1066387399#3" />
	<route id="259" edges="518870787 518870786#1 24267008 157520966#1 157520966#2 157520966#4 1067232685#0 518870782#0 518870782#1 24267075 24267081 -1067179852 -1067179853#2 -1067179853#0 -450682081#1 -450682081#0 -161870608 24267088 161863237 1110264617 1117123985 1078551359 303127223 450682083 303412620#0 303412620#1" />
	<route id="139" edges="32501123 548545760#1 1066387396 -104203814 1066387397 24267122#0 41779521 520281211#1 1067179855 104203838" />
	<route id="30" edges="-1118885070#1 -1118885068 -1118885067 -1118885066 -1118885065 -20899781 186466797 521369416#0 521369416#1 303409704#0 303409704#1 303409704#2 303409704#3 521369415 525352728 1067179856#0 1067232685#0 518870782#0 518870782#1 24267075 40285031#0 40285031#1 40285042 27610290#0 165595468 1118885036 167515247 104205215 -104205221#10 -104205221#9 -104205221#8 -104205216 104205221#3 104205221#4 104205221#5" />
	<route id="31" edges="-1118885070#1 24267161 24267164 1118930501 41779480 1118885077 186466821 521377147 521377146#0 521377146#1 1117129344 521377144 24266991 1117129348 1117129347 1117129345#0 1117129345#1 24266978" />
	<route id="32" edges="-1118885070#1 24267161 24267164 1118930501 41779480 1118885077 186466821 521377147" />
	<route id="33" edges="-1118930502 -211570877 116139661 521369419 186466799 20899781 1118885065 1118885066 1118885067 1118885068" />
	<route id="34" edges="-1118930502 -211570877 116139661 521369419 186466799 20899781 1118885065 1118885066 1118885067 1118885068 1118885070#0" />
	<route id="35" edges="40284974 1118930503#0 1118930503#1 339161587#1 339161587#2 1118881988 32501204 211743270#0 211743270#1 1118885050#0 1118885050#1 1118885050#2" />
	<route id="36" edges="40284974 1118930503#0 1118930503#1 339161587#1 339161587#2 32501230 32501217 1066387382#0 135000604#0 135000604#1 520907938 32501129#0 32501129#1 104203815 135000899 520907937 -1118885051#1 -1118885051#0 -1066387388 -77616016" />
	<route id="37" edges="40284974 1118930503#0 1118930503#1 339161587#1 339161587#2 32501230 32501217 1066387382#0 135000604#0 135000604#1 520907938 32501129#0 32501129#1 104203815 135000899 520907937 -1118885051#1 -1118885051#0 -1118885052#1" />
	<route id="38" edges="40284974 1118930503#0 1118930503#1 339161587#1 339161587#2 32501230 32501217 1066387382#0 135000604#0 135000604#1 520907938 32501129#0 1117137495 41779526" />