<?xml version="1.0" encoding="UTF-8"?>

<!-- generated on 2022-12-02 16:42:17.683164 by osmWebWizard.py v1_14_0+0002-ebd7f0b131e
<configuration>
    <end value="3600"/>
    <max-distance value="2000.0"/>
    <net-file value="C:\Users\goliv\Desktop\Sumo\2022-12-02-16-42-05\osm.net.xml"/>
    <pedestrians value="True"/>
    <period value="5.6505954314935956"/>
    <route-file value="C:\Users\goliv\Desktop\Sumo\2022-12-02-16-42-05\osm.pedestrian.rou.xml"/>
    <output-trip-file value="C:\Users\goliv\Desktop\Sumo\2022-12-02-16-42-05\osm.pedestrian.trips.xml"/>
    <prefix value="ped"/>
    <vehicle-class value="pedestrian"/>
</configuration>
-->

<!-- generated on 2022-12-02 16:42:17 by Eclipse SUMO duarouter Version 1.14.0
<configuration xmlns:xsi="http://www.w3.org/2001/XMLSchema-instance" xsi:noNamespaceSchemaLocation="http://sumo.dlr.de/xsd/duarouterConfiguration.xsd">

    <input>
        <net-file value="C:\Users\goliv\Desktop\Sumo\2022-12-02-16-42-05\osm.net.xml"/>
        <route-files value="C:\Users\goliv\Desktop\Sumo\2022-12-02-16-42-05\osm.pedestrian.trips.xml"/>
    </input>

    <output>
        <output-file value="C:\Users\goliv\Desktop\Sumo\2022-12-02-16-42-05\osm.pedestrian.rou.xml"/>
        <alternatives-output value="NUL"/>
    </output>

    <time>
        <begin value="0"/>
        <end value="3600"/>
    </time>

    <report>
        <no-warnings value="true"/>
        <ignore-errors value="true"/>
        <no-step-log value="true"/>
    </report>

</configuration>
-->

<routes xmlns:xsi="http://www.w3.org/2001/XMLSchema-instance" xsi:noNamespaceSchemaLocation="http://sumo.dlr.de/xsd/routes_file.xsd">
    <vType id="ped_pedestrian" vClass="pedestrian"/>
    <person id="ped0" type="ped_pedestrian" depart="0.00">
        <walk edges="211743289#0 -104203837#3 104203837#2 104203837#1 104203837#0 -135000604#0 -135000604#1 520907938 -1066387390 -303127234 1067225801 135530868 161870606 24267085 -104203857#0"/>
    </person>
    <person id="ped1" type="ped_pedestrian" depart="5.65">
        <walk edges="-60100233 1066387399#1 -104203825 -104203821#5 -104203785 520281211#1 520281211#0 1078551359 1117123985 -24267114 -161870606 -32501276#3 -32501276#2"/>
    </person>
    <person id="ped2" type="ped_pedestrian" depart="11.30">
        <walk edges="298688777#5 298688777#4 298688777#3 807304446 664204284#0 900952289#0 900952289#1 211803727 211803720 211803735 211803718 211803731"/>
    </person>
    <person id="ped3" type="ped_pedestrian" depart="16.95">
        <walk edges="41779473#1 41779473#0 -608022304 608022303 -41736416#2 -41736416#1 -450682080#1 -450682080#0 24267079 -161870605#1 -518870778 -1118885029"/>
    </person>
    <person id="ped5" type="ped_pedestrian" depart="28.25">
        <walk edges="-32501264#0 134111722#3 134111722#2 134111722#0 -32501305 104203784#2 165222789#1 165222789#0"/>
    </person>
    <person id="ped6" type="ped_pedestrian" depart="33.90">
        <walk edges="-104203857#1 -24267079 -24267081 -24267075 -518870782#1 518870782#0 1067232685#0 1067179856#0 1110251954#0 -133164481#1 1118885079 1118885078 1118885080 -303409713"/>
    </person>
    <person id="ped7" type="ped_pedestrian" depart="39.55">
        <walk edges="211743290#2 211743290#1 211743290#0 41736415#2 41736415#1 41736415#0 -32501217 303407190 41779466 608022304 24267056#0 24267056#1 -157520966#4 -157520966#3 -157520966#1 -211816959 -1117129346 1117129352 167498379#1 167498379#0"/>
    </person>
    <person id="ped8" type="ped_pedestrian" depart="45.20">
        <walk edges="-32501276#0 -134121549#5 -134121549#4 -134121549#3 134121549#2 134121549#1 134121549#0 32501293#1 32501293#0 25329179 -518870782#1 518870782#0 1067232685#0 1067179856#0 1110251954#0 1110251952#0 521377145 -337932636#0 211693391#1 211696377#1 211693389 211693388#1 211693388#0"/>
    </person>
    <person id="ped9" type="ped_pedestrian" depart="50.86">
        <walk edges="32501267#3 134111722#2 134111722#3 32501256#1 187775910#0 130792974 135000604#0 -135000604#1 1066387389 1066387386 25329248 520907937 -135000899 -104203815"/>
    </person>
    <person id="ped13" type="ped_pedestrian" depart="73.46">
        <walk edges="-1118885050#3 -1118885050#2 -1118885050#1 -1118885050#0 -211743270#1 -211743270#0 40284971 -116139659 -1118930503#1 -1118930503#0 40284974 1118930502 -211570877 116139661 521369419 186466799 20899781 1118885065 1118885066 1118885067 1118885068 1118885070#0 -1118885070#1 -1118885068 -1118885067 -1118885066"/>
    </person>
    <person id="ped14" type="ped_pedestrian" depart="79.11">
        <walk edges="346365690#1 403546387 807304447 473881519 346365693 104203849#2 403546813#2 403546813#3 403546813#4 604828953#2 604828953#1 604828953#0 608022307 41736415#7 41736415#6 41736415#5 41736415#4 41736415#3 41736415#2 41736415#1 41736415#0 -32501217 303407190 41779466 608022304 24267056#0 24267056#1 -1067179856#1 1110251954#0 1110251952#0 521377145 -337932636#0 211693391#1 211708157#1"/>
    </person>
    <person id="ped15" type="ped_pedestrian" depart="84.76">
        <walk edges="32501267#1 32501267#2 134111722#0 134111722#2 134111722#3 32501256#1 187775910#0 130792974 211743288#2 211743273 211803737 211803740 211803724 211803742 211803723 211803731 211803718 211803735 211803720 211803727 900952289#1 316539761 316539753#2 316539749 298688777#0"/>
    </person>
    <person id="ped16" type="ped_pedestrian" depart="90.41">
        <walk edges="165437831#1 -165437832 165405484#1 161870613#0 161870613#2 -161870605#1 24267079 -450682080#0 -450682080#1 -41736416#1 -41736416#2 608022303"/>
    </person>
    <person id="ped17" type="ped_pedestrian" depart="96.06">
        <walk edges="1087339729 41779524#1 41779524#0 -450682084 24267122#1 450682083 24267065 1067225801 135530868 -32501276#3 -32501276#2 -32501276#1 -32501276#0 -134121549#5 167517738#2"/>
    </person>
    <person id="ped18" type="ped_pedestrian" depart="101.71">
        <walk edges="337932635#0 211696377#1 211693391#1 -337932636#0 521377145 1110251952#0 1110251954#0 -1067179856#1 24267056#1 24267056#0 608022304 41779466 303407190 -32501217 41736415#0 41736415#1 41736415#2 211743290#0 211743278"/>
    </person>
    <person id="ped19" type="ped_pedestrian" depart="107.36">
        <walk edges="403546386 604828953#5 604828953#4 604828953#3 604828953#2 604828953#1 604828953#0 211743288#0 211743288#1 211743288#2 135000604#0 187775911"/>
    </person>
    <person id="ped22" type="ped_pedestrian" depart="124.31">
        <walk edges="-1117129353 -211816964 -1117129354 -24267178 -157520966#4 24267056#1 41779474 -41779473#1 211803717 211803716 41779512 -339161587#1"/>
    </person>
    <person id="ped23" type="ped_pedestrian" depart="129.96">
        <walk edges="-1118885070#1 1118885070#0 1118885068 1118885067 1118885066 1118885065 20899781 186466799 521369419 116139661 -211570877 1118930502 40284974 -1118930503#0 -1118930503#1 -116139659 40284971 -211743270#0 -211743270#1 -1118885050#0 -1118885050#1 1118885050#2 -77616042"/>
    </person>
    <person id="ped24" type="ped_pedestrian" depart="135.61">
        <walk edges="211743288#1 211743288#2 -135000604#0 -135000604#1 520907938 -1066387390 -303127234 1067225801 -135530868 -161870606 -24267114 1117123985 1078551359 520281211#0 520281211#1 -104203785 -104203821#5 -104203825 1066387399#0"/>
    </person>
    <person id="ped26" type="ped_pedestrian" depart="146.92">
        <walk edges="-520281211#0 -1078551359 -1117123985 -24267114 -161870606 -32501276#3 -32501276#2 32501276#1 167517738#3 134121549#4 134121549#3 134121549#2 134121549#1 134121549#0 32501293#1 32501293#0 25329179 -518870782#1 518870782#0 1067232685#0 1067179856#0 1110251954#0 521369414 521369415 303409704#3 303409704#2 303409704#1 303409704#0 521369416#1"/>
    </person>
    <person id="ped27" type="ped_pedestrian" depart="152.57">
        <walk edges="211743290#1 211743290#0 41736415#2 211743287 -41779518 211743270#0"/>
    </person>
    <person id="ped28" type="ped_pedestrian" depart="158.22">
        <walk edges="-24267056#2 -24267056#0 608022304 41779466 303407190 -32501217 -1066387382#0 211743288#2 211743273 211803737 211803740 211803724 211803742 211803723 211803731 211803718 211803735 211803720 211803727 900952289#1 316539761 316539753#2 316539749 298688777#0"/>
    </person>
    <person id="ped29" type="ped_pedestrian" depart="163.87">
        <walk edges="-211816959 27610290#1 27610290#0 -116135245#0 -116135245#1 25329179 32501293#0 32501293#1 134121549#0 134121549#1 134121549#2 134121549#3 134121549#4 167517738#3 32501276#1 -32501276#2 -32501276#3 135530868 1067225801 24267065 450682083 24267122#1 -450682084 41779524#0 1087339730"/>
    </person>
    <person id="ped30" type="ped_pedestrian" depart="169.52">
        <walk edges="807304446 664204284#0 900952289#0 900952289#1 211803727 211803720 211803735 211803718 211803731 211803723 211803742 211803724 211803740 211803737 211743273 211743288#2 104203837#0 104203837#1 211743276 211743289#2 211743289#1"/>
    </person>
    <person id="ped34" type="ped_pedestrian" depart="192.12">
        <walk edges="104203849#1 604828953#4 604828953#3 604828953#2 604828953#1 604828953#0 211743288#0 211743288#1 211743288#2 -135000604#0 -135000604#1 520907938 -1066387390 -303127234 1067225801 -135530868 -161870606 -24267114 -1117123985 -1078551359 -520281211#0 -520281211#1"/>
    </person>
    <person id="ped35" type="ped_pedestrian" depart="197.77">
        <walk edges="-32501228#0 -32501228#1 32501228#2 32501228#3 -32501217 303407190 41779466 608022304 24267056#0 24267056#1 -1067179856#1 1110251954#0 1110251952#0 521377145 1117129342 521377147"/>
    </person>
    <person id="ped36" type="ped_pedestrian" depart="203.42">
        <walk edges="41736415#3 41736415#4 41736415#5 41736415#6 41736415#7 608022307 604828953#0 604828953#1 298688781 104203849#0"/>
    </person>
    <person id="ped37" type="ped_pedestrian" depart="209.07">
        <walk edges="211803709 211803708 104203857#1 -24267079 -24267081 -24267075 -518870782#1 518870782#0 1067232685#0 1067179856#0 1110251954#0 135530867#0 1117129343"/>
    </person>
    <person id="ped38" type="ped_pedestrian" depart="214.72">
        <walk edges="450682082 525352726 1117123985 -24267114 -161870606 -32501276#3 -32501276#2 -32501276#1 -32501276#0 -134121549#5 167517738#2 255614596 32501267#2 134111722#0 134111722#2 134111722#3"/>
    </person>
    <person id="ped39" type="ped_pedestrian" depart="220.37">
        <walk edges="-518870782#1 -518870782#0 -1067232685#1 -24267056#2 -41779474 -41779473#0"/>
    </person>
    <person id="ped40" type="ped_pedestrian" depart="226.02">
        <walk edges="172903740 1117129350 1117129351 1117129352 -1117129346 -211816959 27610290#1 27610290#0 -116135245#0 -116135245#1 24267075 24267081 518870781 -518870778"/>
    </person>
    <person id="ped42" type="ped_pedestrian" depart="237.33">
        <walk edges="1117129347 -1117129346 -211816959 27610290#1 27610290#0 -116135245#0 -116135245#1 25329179 32501293#0 32501293#1 -134121549#0 -134121549#1 -134121549#2 32501305 -134111722#0 -134111722#2 134111722#3 -32501264#0 -32501264#1"/>
    </person>
    <person id="ped45" type="ped_pedestrian" depart="254.28">
        <walk edges="-116139659 40284971 -211743270#0 -41779518 211743287 41736415#1 211743285#1 32501228#2 211743275 211743283#1"/>
    </person>
    <person id="ped46" type="ped_pedestrian" depart="259.93">
        <walk edges="32501228#2 211743285#1 41736415#1 41736415#2 41736415#3 41736415#4 41736415#5 41736415#6 41736415#7 608022307 604828953#0 604828953#1 604828953#2 403546813#4 403546813#3 403546813#2 403546813#1 604828955#2 211751977 211803732 211803719 211803726 211803738 1118885050#2"/>
    </person>
    <person id="ped47" type="ped_pedestrian" depart="265.58">
        <walk edges="-1066387399#1 -104203825 -104203821#5 -104203785 1066387398 24267122#0 450682084 41779524#0 -1087339730 41779524#4 1087339743#0 704357176#0 1087339738"/>
    </person>
    <person id="ped49" type="ped_pedestrian" depart="276.88">
        <walk edges="608022302 525352735 41736416#2 41736416#1 -25329179 116135245#1 116135245#0 40285042"/>
    </person>
    <person id="ped50" type="ped_pedestrian" depart="282.53">
        <walk edges="-104203821#4 -104203785 520281211#1 520281211#0 1078551359 1117123985 -24267114 -161870606 -32501276#3 -32501276#2 -32501276#1 167517738#4 167517738#0 255614592"/>
    </person>
    <person id="ped51" type="ped_pedestrian" depart="288.18">
        <walk edges="211803738 1118885050#1 1118885050#0 211743270#1 211743270#0 32501204 1118881988 -32501230 -303407190 608022302 525352735 41736416#2 41736416#1 450682080#1 161870611 24267079 -161870605#1 161870613#2 161870613#0 165405484#1 165437832"/>
    </person>
    <person id="ped52" type="ped_pedestrian" depart="293.83">
        <walk edges="-520281211#0 -1078551359 -1117123985 -24267114 -161870606 -135530868 1067225801 -303127234 -1066387390 520907938 -135000604#1 -135000604#0 104203837#0 104203837#1 211743276 211743289#2"/>
    </person>
    <person id="ped53" type="ped_pedestrian" depart="299.48">
        <walk edges="-130792974 1066387382#0 32501217 -303407190 41779466 608022304 24267056#0 24267056#1 -1067179856#1 1110251954#0 -133164481#1 1118885079"/>
    </person>
    <person id="ped54" type="ped_pedestrian" depart="305.13">
        <walk edges="133164466 133164481#0 1110251952#0 521377145 -337932636#0 337932635#2 584287922"/>
    </person>
    <person id="ped55" type="ped_pedestrian" depart="310.78">
        <walk edges="41736415#3 41736415#2 41736415#1 41736415#0 -32501217 303407190 41779466 608022304 -24267056#0 -24267056#2 -1067232685#1 -518870782#0"/>
    </person>
    <person id="ped56" type="ped_pedestrian" depart="316.43">
        <walk edges="161870612 -161871533#1 518870781 -24267079 104203857#1 104203857#0 -525352736 24267114 -1117123985 -1078551359 -520281211#0 -41779521 -24267122#0"/>
    </person>
    <person id="ped58" type="ped_pedestrian" depart="327.73">
        <walk edges="104203821#3 -104203821#2 165405484#0 165405484#1 161870613#0 161870613#2 -161870605#1 24267079 161870611 450682080#1 41736416#1 41736416#2 525352735 608022302 -303407190 32501217 32501228#3 32501228#2 -32501228#1 -32501228#0 211743289#0"/>
    </person>
    <person id="ped59" type="ped_pedestrian" depart="333.39">
        <walk edges="211743270#0 32501204 1118881988 -32501230 -303407190 608022302 525352735 41736416#2 41736416#1 450682080#1 161870611 24267079 -161870605#1 161870613#2 161870613#0 165405484#1 -165437832 -165437831#0"/>
    </person>
    <person id="ped60" type="ped_pedestrian" depart="339.04">
        <walk edges="316539753#1 316539761 900952289#1 211803727 211803720 211803735 211803718 211803731 211803723 211803742 211803724 211803740 211803737 211743273 211743288#2 -1066387382#0 32501217 -303407190 608022302 525352735 41736416#2 41736416#1 450682080#1 161870611 24267079 -161870605#1 161870613#2 161870613#0 165405484#1 -165437832 165437834"/>
    </person>
    <person id="ped61" type="ped_pedestrian" depart="344.69">
        <walk edges="32501101#0 -32501101#0 41779526 41779525 303127234 1067225801 135530868 161870606 24267085 104203857#0 104203857#1 24267079 -161870605#1 161870613#2 161870613#0 165405484#1"/>
    </person>
    <person id="ped62" type="ped_pedestrian" depart="350.34">
        <walk edges="-104203780#0 -1066387390 -303127234 1067225801 135530868 161870606 24267085 104203857#0"/>
    </person>
    <person id="ped63" type="ped_pedestrian" depart="355.99">
        <walk edges="-104203837#2 104203837#1 104203837#0 -135000604#0 -135000604#1 520907938 -1066387390 -303127234 1067225801 -135530868 -161870606 -24267114 1117123985 1078551359 520281211#0 520281211#1"/>
    </person>
    <person id="ped64" type="ped_pedestrian" depart="361.64">
        <walk edges="41736415#5 41736415#4 41736415#3 41736415#2 41736415#1 41736415#0 -32501217 303407190 41779466 608022304 24267056#0 24267056#1 -1067179856#1 1110251954#0 521369414 521369415 303409704#3 303409704#2 303409704#1 211693388#4 537238725 537238723 337932635#1"/>
    </person>
    <person id="ped65" type="ped_pedestrian" depart="367.29">
        <walk edges="104203837#1 104203837#0 -135000604#0 -135000604#1 520907938 -1066387390"/>
    </person>
    <person id="ped66" type="ped_pedestrian" depart="372.94">
        <walk edges="41736415#4 41736415#3 41736415#2 41736415#1 211743285#1 211743285#0 211743289#5 -130792974 187775910#0 32501256#1 134111722#3 134111722#2 134111722#0 -32501305 -134121549#3 165228736#2 521379054#1 521379054#2"/>
    </person>
    <person id="ped67" type="ped_pedestrian" depart="378.59">
        <walk edges="-1118881989 -40284971 -525352730 1118881988 -32501230 -32501217 -1066387382#0 -135000604#0 -135000604#1 1066387389 1066387386 25329248 520907937 135000899"/>
    </person>
    <person id="ped68" type="ped_pedestrian" depart="384.24">
        <walk edges="-1078551359 -1117123985 -24267114 -161870606 -135530868 1067225801 -303127234 -1066387390 520907938 -135000604#1 -135000604#0 211743288#2 211743273 211803737 211803740 211803724 211803742 211803723 211803731 211803718 211803735 211803720 211803727 900952289#1 316539761 316539753#2 316539749"/>
    </person>
    <person id="ped69" type="ped_pedestrian" depart="389.89">
        <walk edges="316539753#3 316539753#2 316539761 900952289#1 211803727 211803720 211803735 211803718 211803731 211803723 211803742 211803724 211803740 211803737 211743273 211743288#2 -1066387382#0 -32501217 303407190 41779466 608022304 41779473#0 41779473#1 41779473#2 -1118885084 -134394992"/>
    </person>
    <person id="ped70" type="ped_pedestrian" depart="395.54">
        <walk edges="134126320#1 32501293#1 134121549#0 134121549#1 134121549#2 -134121549#3 -134121549#4 167517738#2 167517738#1 167517738#0"/>
    </person>
    <person id="ped71" type="ped_pedestrian" depart="401.19">
        <walk edges="-518870782#1 25329179 -41736416#1 -41736416#2 525352735 608022302 -303407190 32501217 41736415#0"/>
    </person>
    <person id="ped72" type="ped_pedestrian" depart="406.84">
        <walk edges="1118885050#2 211803738 211803726 211803719 211803732 211751977 604828955#2 403546813#1 403546813#2 403546813#3 403546813#4 604828953#2 604828953#1 604828953#0 608022307 41736415#7 41736415#6 41736415#5 41736415#4 41736415#3 41736415#2 41736415#1 211743285#1 32501228#2 -32501228#1 -32501228#0"/>
    </person>
    <person id="ped73" type="ped_pedestrian" depart="412.49">
        <walk edges="165437834 -165437832 165405484#1 161870613#0 161870613#2 -161870605#1 24267079 161870611 450682080#1 41736416#1 41736416#2 525352735 608022302 -303407190 32501217 -1066387382#0 211743288#2 211743273 211803737 211803740 211803724 211803742 211803723 211803731 211803718 211803735 211803720 211803727 900952289#1 316539761 316539753#2 316539749 298688777#0"/>
    </person>
    <person id="ped74" type="ped_pedestrian" depart="418.14">
        <walk edges="-303412620#1 -32501133 -1117137495 -32501129#0 520907938 -135000604#1 -135000604#0 211743288#2 211743288#1 211743288#0 604828953#0 104203844#0"/>
    </person>
    <person id="ped76" type="ped_pedestrian" depart="429.45">
        <walk edges="1118885082 -1118885081 1117159561 1067232684 1117159562#0 -1067232685#1 -518870782#0 -518870782#1 25329179 32501293#0 32501293#1 134121549#0 104203804#1 165228740"/>
    </person>
    <person id="ped77" type="ped_pedestrian" depart="435.10">
        <walk edges="-134121549#2 -134121549#3 -134121549#4 -134121549#5 -32501276#0 -32501276#1 -32501276#2 -32501276#3"/>
    </person>
    <person id="ped79" type="ped_pedestrian" depart="446.40">
        <walk edges="-337932636#0 521377145 1110251952#0 1110251954#0 1067179856#0 1067232685#0 518870782#0 -518870782#1 25329179 32501293#0 32501293#1 -134121549#0 -134121549#1 -134121549#2 32501305 -134111722#0 -134111722#2 134111722#3 -32501264#0 -32501264#1"/>
    </person>
    <person id="ped80" type="ped_pedestrian" depart="452.05">
        <walk edges="-1087339730 41779524#0 -450682084 24267122#1 450682083 24267065 303127234 -1066387390 520907938 -135000604#1 -135000604#0 104203837#0 104203837#1 104203837#2 211743286#1 211743286#0"/>
    </person>
    <person id="ped82" type="ped_pedestrian" depart="463.35">
        <walk edges="40284971 32501204 1118881988 -32501230 -32501217 -1066387382#0 -135000604#0 -135000604#1 520907938 -1066387390 303127234 24267065 450682083 24267122#1 -450682084 41779524#0 -1087339730"/>
    </person>
    <person id="ped84" type="ped_pedestrian" depart="474.65">
        <walk edges="-32501228#2 211743285#0 211743289#5 -135000604#0 -135000604#1"/>
    </person>
    <person id="ped85" type="ped_pedestrian" depart="480.30">
        <walk edges="521369416#0 186466797"/>
    </person>
    <person id="ped86" type="ped_pedestrian" depart="485.95">
        <walk edges="134126320#0 134126320#1 32501293#1 134121549#0 134121549#1 134121549#2 134121549#3 134121549#4 167517738#3 32501276#1 -32501276#2 -32501276#3 135530868 1067225801 -303127234 1066387390 32501129#0 32501129#1"/>
    </person>
    <person id="ped87" type="ped_pedestrian" depart="491.60">
        <walk edges="32501267#1 255614592 167517738#0 167517738#4 -32501276#1 -32501276#2 -32501276#3 -161870606 -24267114 -1117123985 -1078551359 -303127223"/>
    </person>
    <person id="ped88" type="ped_pedestrian" depart="497.25">
        <walk edges="-1118885066 -1118885067 -1118885068 -1118885070#1 1118885070#0 1118885068"/>
    </person>
    <person id="ped89" type="ped_pedestrian" depart="502.90">
        <walk edges="1118885050#3 1118885050#2 211803738 211803726 211803719 211803732 211751977 604828955#2 403546813#1 403546813#2 403546813#3 403546813#4 604828953#2 604828953#1 604828953#0 211743288#0 211743288#1 211743288#2 130792974 187775910#0 32501256#1 134111722#3 134111722#2 134111722#0 32501267#2 255614596 167517738#2 134121549#5"/>
    </person>
    <person id="ped90" type="ped_pedestrian" depart="508.55">
        <walk edges="298688777#0 298688777#1 298688777#2 807304446 807304445 104203849#0 604828953#5 604828953#6 604828955#0 604828955#1 211751977 211803732 211803719 211803726"/>
    </person>
    <person id="ped91" type="ped_pedestrian" depart="514.20">
        <walk edges="704357176#0 1087339743#0 41779524#4 -1087339730 41779524#0 -450682084 24267122#1 450682083 24267065 1067225801 135530868 -32501276#3 -32501276#2 32501276#1 167517738#3 134121549#4 134121549#3 134121549#2 134121549#1 134121549#0 32501293#1 32501293#0 25329179 -518870782#1 518870782#0 1067232685#0 1067179856#0 1110251954#0 1110251952#0 521377145 303127225 -1118885077 -41779480 1118930500#0 1118930500#1 -41779481 -1118885066 -1118885067"/>
    </person>
    <person id="ped93" type="ped_pedestrian" depart="525.51">
        <walk edges="403546386 604828953#5 604828953#4 604828953#3 604828953#2 604828953#1 604828953#0 608022307 41736415#7 41736415#6 41736415#5 41736415#4 41736415#3 41736415#2 41736415#1 41736415#0 -32501217 303407190 41779466 608022304 41779473#0 41779473#1 -41779473#2"/>
    </person>
    <person id="ped95" type="ped_pedestrian" depart="536.81">
        <walk edges="1118885050#1 1118885050#2 -77616042"/>
    </person>
    <person id="ped96" type="ped_pedestrian" depart="542.46">
        <walk edges="-41779474 24267056#0 -608022304 608022303 -41736416#2 -41736416#1 -450682080#1 -450682080#0 -24267079 518870781"/>
    </person>
    <person id="ped97" type="ped_pedestrian" depart="548.11">
        <walk edges="116135245#0 116135245#1 -25329179 41736416#1 41736416#2 525352735 608022302 -303407190 32501217 41736415#0 41736415#1 41736415#2 41736415#3 41736415#4 41736415#5 41736415#6 41736415#7 608022307 604828953#0 604828953#1 604828953#2 604828953#3 604828953#4 604828953#5 403546386"/>
    </person>
    <person id="ped99" type="ped_pedestrian" depart="559.41">
        <walk edges="900952289#1 211803727 211803720 211803735 211803718 211803731 211803723 211803742 211803724 211803740 211803737 211743273 211743288#2 -1066387382#0 -32501217 32501230 339161587#2 339161587#1"/>
    </person>
    <person id="ped100" type="ped_pedestrian" depart="565.06">
        <walk edges="604828955#2 403546813#1 403546813#2 403546813#3 403546813#4 604828953#2 604828953#1 604828953#0 608022307 41736415#7 41736415#6 41736415#5 41736415#4 41736415#3 41736415#2 41736415#1 41736415#0 -32501217 303407190 41779466 608022304 -24267056#0 -24267056#2 -1067232685#1 -518870782#0 518870782#1"/>
    </person>
    <person id="ped101" type="ped_pedestrian" depart="570.71">
        <walk edges="346365690#2 403546387 807304447 473881519 346365693 104203849#2 403546813#2 403546813#3 403546813#4 604828953#2 604828953#1 604828953#0 608022307 41736415#7 41736415#6 41736415#5 41736415#4 41736415#3 41736415#2 41736415#1 41736415#0 -32501217 303407190 41779466 608022304 24267056#0 24267056#1 -157520966#4 -24267178 -1117129354 -211816964"/>
    </person>
    <person id="ped102" type="ped_pedestrian" depart="576.36">
        <walk edges="135000702 -303412620#1 -32501133 -1117137495 -32501129#0 520907938 -135000604#1 -135000604#0 211743289#5 211743285#0 -32501228#2"/>
    </person>
    <person id="ped103" type="ped_pedestrian" depart="582.01">
        <walk edges="1117129348 -24266991 -1117129353 -211816964 -1117129354 -24267178 -157520966#4 24267056#1 24267056#0 608022304 41779466 -303407190 32501217 1066387382#0 135000604#0 135000604#1 520907938 -1066387390"/>
    </person>
    <person id="ped104" type="ped_pedestrian" depart="587.66">
        <walk edges="1087339729 41779524#1 -1087339730 41779524#4 1087339743#0 704357176#0"/>
    </person>
    <person id="ped105" type="ped_pedestrian" depart="593.31">
        <walk edges="-518870782#1 25329179 32501293#0 32501293#1 134121549#0 134121549#1 134121549#2 134121549#3 134121549#4 167517738#3 32501276#1 -32501276#2 -32501276#3 135530868 1067225801 -303127234 1066387390 32501129#0 32501129#1"/>
    </person>
    <person id="ped106" type="ped_pedestrian" depart="598.96">
        <walk edges="133164481#0 -133164481#1 1110251954#0 -1067179856#1 24267056#1 24267056#0 608022304 41779466 303407190 -32501230 1118881988 32501204 211743270#0 211743270#1 1118885050#0 1118885050#1 1118885050#2"/>
    </person>
    <person id="ped109" type="ped_pedestrian" depart="615.91">
        <walk edges="-165437831#1 -165437834 104203821#2"/>
    </person>
    <person id="ped110" type="ped_pedestrian" depart="621.57">
        <walk edges="604828955#2 403546813#1 403546813#2 403546813#3 403546813#4 604828953#2 604828953#1 604828953#0 211743288#0 211743288#1 211743288#2 135000604#0 187775911 187775912"/>
    </person>
    <person id="ped111" type="ped_pedestrian" depart="627.22">
        <walk edges="167498373 167498379#1 1117129352 -1117129346 -211816959 -157520966#1 -157520966#3 -157520966#4 24267056#1 24267056#0 608022304 41779466 303407190"/>
    </person>
    <person id="ped114" type="ped_pedestrian" depart="644.17">
        <walk edges="-165437834 -104203821#2 165405484#0 165405484#1 161870613#0 161870613#2 -161870605#1 24267079 161870611 450682080#1 41736416#1 41736416#2 525352735 608022302 -303407190 32501217 41736415#0 41736415#1 41736415#2 41736415#3 41736415#4 41736415#5 41736415#6 41736415#7 608022307 604828953#0 604828953#1 604828953#2 604828953#3"/>
    </person>
    <person id="ped115" type="ped_pedestrian" depart="649.82">
        <walk edges="-1117129354 -211816963#1 1110251952#0 521377145 303127225 1118885077 -303127210"/>
    </person>
    <person id="ped116" type="ped_pedestrian" depart="655.47">
        <walk edges="211693388#4 303409704#1 303409704#2 303409704#3 521369415 521369414 1110251954#0 -1067179856#1 24267056#1 24267056#0 608022304 41779466 303407190 -32501217 -1066387382#0 211743288#2 211743273 211803737 211803740 211803724 211803742 211803723 211803731 211803718 211803735 211803720 211803727"/>
    </person>
    <person id="ped118" type="ped_pedestrian" depart="666.77">
        <walk edges="41779472 24267178 -157520966#4 24267056#1 -41779474 -41779473#0"/>
    </person>
    <person id="ped119" type="ped_pedestrian" depart="672.42">
        <walk edges="211693388#4 303409704#1 303409704#2 303409704#3 521369415 521369414 1110251954#0 -1067179856#1 24267056#1 24267056#0 608022304 41779466 303407190 -32501217 41736415#0 41736415#1 41736415#2 211743290#0 211743278"/>
    </person>
    <person id="ped122" type="ped_pedestrian" depart="689.37">
        <walk edges="-32501101#1 32501101#2 104203815 135000899 520907937 25329248 1066387386 1066387389 -135000604#1 -135000604#0 -1066387382#0 -32501217 303407190 41779466 608022304 24267056#0 24267056#1 -157520966#4 24267178"/>
    </person>
    <person id="ped124" type="ped_pedestrian" depart="700.67">
        <walk edges="211803724 211803740 211803737 211743273 211743288#2 -135000604#0 -135000604#1 520907938 -1066387390 -303127234 1067225801 -135530868 -161870606 -24267114 1117123985 1078551359 520281211#0 520281211#1 -104203785 104203821#4"/>
    </person>
    <person id="ped125" type="ped_pedestrian" depart="706.32">
        <walk edges="104203849#1 604828953#4 604828953#3 604828953#2 604828953#1 604828953#0 608022307 41736415#7 41736415#6 41736415#5 41736415#4 41736415#3 41736415#2 41736415#1 41736415#0 -32501217 303407190 41779466 608022304 24267056#0 24267056#1 -1067179856#1 1110251954#0 521369414 521369415 303409704#3 303409704#2"/>
    </person>
    <person id="ped126" type="ped_pedestrian" depart="711.98">